# File generated by Flopy version 3.8.0 on 10/09/2024 at 07:14:35.
BEGIN OPTIONS
  LIST  mf6_riv_reg.lst
  SAVE_FLOWS
  NEWTON
END OPTIONS

BEGIN PACKAGES
  disu6  mf6_riv_reg.dis
  ic6  mf6_riv_reg.ic6
  oc6  mf6_riv_reg.oc6
  npf6  mf6_riv_reg.npf
  chd6  mf6_riv_reg.chd  chd-1
  riv6  mf6_riv_reg.riv  riv-1
  ghb6  mf6_riv_reg.ghb  ghb-1
  rch6  mf6_riv_reg.rch  rch-1
  evt6  mf6_riv_reg.evt  evt-1
END PACKAGES

