# File generated by Flopy version 3.8.0 on 10/09/2024 at 07:14:35.
BEGIN OPTIONS
  PRINT_OPTION  none
  COMPLEXITY  moderate
END OPTIONS

