# File generated by Flopy version 3.8.0 on 10/09/2024 at 07:19:16.
BEGIN OPTIONS
  SAVE_FLOWS
END OPTIONS

BEGIN DIMENSIONS
  MAXBOUND  1477
END DIMENSIONS

BEGIN PERIOD  1
  5640 4.90000378E+03 1.40625000E+05 4.89500378E+03
  5875 4.90002666E+03 1.81250000E+06 4.89502666E+03
  6109 4.90008083E+03 1.14062500E+06 4.89508082E+03
  6110 4.90005796E+03 6.71875000E+05 4.89505795E+03
  6344 4.90011815E+03 1.81250000E+06 4.89511814E+03
  6578 4.90015995E+03 1.59375000E+06 4.89515994E+03
  6579 4.90014282E+03 1.40625000E+05 4.89514282E+03
  6813 4.90020739E+03 1.75000000E+06 4.89520737E+03
  7047 4.90025334E+03 1.57812500E+06 4.89525333E+03
  7048 4.90023133E+03 1.56250000E+05 4.89523132E+03
  7282 4.90029580E+03 1.67187500E+06 4.89529579E+03
  7517 4.90033525E+03 1.56250000E+06 4.89533522E+03
  7752 4.90037475E+03 1.56250000E+06 4.89537472E+03
  7987 4.90041424E+03 1.56250000E+06 4.89541422E+03
  8222 4.90045374E+03 1.56250000E+06 4.89545372E+03
  8457 4.90049352E+03 1.57812500E+06 4.89549349E+03
  8692 4.90053369E+03 1.59375000E+06 4.89553366E+03
  8926 4.90058087E+03 1.39062500E+06 4.89558083E+03
  8927 4.90055752E+03 2.81250000E+05 4.89555748E+03
  9160 4.90064453E+03 1.56250000E+04 4.89564449E+03
  9161 4.90062031E+03 1.90625000E+06 4.89562028E+03
  9395 4.90066881E+03 1.90625000E+06 4.89566877E+03
  9629 4.90072707E+03 1.14062500E+06 4.89572703E+03
  9630 4.90070285E+03 7.81250000E+05 4.89570281E+03
  9863 4.90078521E+03 5.62500000E+05 4.89578516E+03
  9864 4.90075780E+03 1.43750000E+06 4.89575775E+03
  10097 4.90084169E+03 1.71875000E+05 4.89584164E+03
  10098 4.90081589E+03 1.87500000E+06 4.89581584E+03
  10332 4.90086826E+03 1.92187500E+06 4.89586821E+03
  10566 4.90092368E+03 1.21875000E+06 4.89592362E+03
  10567 4.90090046E+03 6.09375000E+05 4.89590041E+03
  10800 4.90098444E+03 9.37500000E+04 4.89598439E+03
  10801 4.90096123E+03 1.75000000E+06 4.89596117E+03
  11035 4.90100393E+03 1.71875000E+06 4.89600387E+03
  11270 4.90105078E+03 1.68750000E+06 4.89605072E+03
  11504 4.90109746E+03 1.40625000E+06 4.89609740E+03
  11505 4.90107601E+03 2.96875000E+05 4.89607595E+03
  11739 4.90113162E+03 1.57812500E+06 4.89613156E+03
  11974 4.90117509E+03 1.56250000E+06 4.89617502E+03
  12127 4.90121458E+03 1.56250000E+06 4.89621451E+03
  12280 4.90125408E+03 1.56250000E+06 4.89625401E+03
  12433 4.90129357E+03 1.56250000E+06 4.89629350E+03
  12557 4.90302265E+03 2.81250000E+05 4.89802247E+03
  12558 4.90299969E+03 1.62500000E+06 4.89799952E+03
  12559 4.90296224E+03 1.23437500E+06 4.89796207E+03
  12586 4.90132927E+03 1.54687500E+06 4.89632919E+03
  12708 4.90311063E+03 5.31250000E+05 4.89811045E+03
  12709 4.90308341E+03 1.70312500E+06 4.89808324E+03
  12710 4.90304413E+03 1.40625000E+06 4.89804396E+03
  12712 4.90294240E+03 3.90625000E+05 4.89794223E+03
  12713 4.90291347E+03 1.84375000E+06 4.89791330E+03
  12714 4.90288009E+03 7.96875000E+05 4.89787992E+03
  12739 4.90137288E+03 1.57812500E+06 4.89637280E+03
  12860 4.90316704E+03 5.93750000E+05 4.89816686E+03
  12861 4.90313912E+03 1.62500000E+06 4.89813893E+03
  12867 4.90285683E+03 1.04687500E+06 4.89785667E+03
  12868 4.90282811E+03 1.62500000E+06 4.89782795E+03
  12892 4.90141263E+03 1.57812500E+06 4.89641255E+03
  13012 4.90322169E+03 5.00000000E+05 4.89822150E+03
  13013 4.90319497E+03 1.62500000E+06 4.89819478E+03
  13021 4.90279777E+03 3.59375000E+05 4.89779761E+03
  13022 4.90276768E+03 2.01562500E+06 4.89776753E+03
  13023 4.90274108E+03 9.37500000E+04 4.89774092E+03
  13045 4.90145237E+03 1.56250000E+06 4.89645229E+03
  13165 4.90325113E+03 1.79687500E+06 4.89825094E+03
  13176 4.90271557E+03 1.92187500E+06 4.89771541E+03
  13177 4.90268438E+03 5.46875000E+05 4.89768423E+03
  13198 4.90148292E+03 8.43750000E+05 4.89648283E+03
  13199 4.90150279E+03 7.34375000E+05 4.89650271E+03
  13317 4.90330646E+03 1.00000000E+06 4.89830627E+03
  13318 4.90328383E+03 7.96875000E+05 4.89828364E+03
  13330 4.90266410E+03 1.23437500E+06 4.89766395E+03
  13331 4.90262600E+03 1.59375000E+06 4.89762585E+03
  13332 4.90258576E+03 1.59375000E+06 4.89758561E+03
  13333 4.90254538E+03 1.56250000E+06 4.89754523E+03
  13334 4.90250587E+03 1.57812500E+06 4.89750573E+03
  13335 4.90246624E+03 1.56250000E+06 4.89746610E+03
  13336 4.90243558E+03 8.59375000E+05 4.89743544E+03
  13352 4.90152646E+03 1.54687500E+06 4.89652637E+03
  13470 4.90333953E+03 1.78125000E+06 4.89833934E+03
  13489 4.90241576E+03 7.03125000E+05 4.89741562E+03
  13490 4.90238699E+03 1.57812500E+06 4.89738686E+03
  13491 4.90234728E+03 1.70312500E+06 4.89734714E+03
  13492 4.90230044E+03 1.43750000E+06 4.89730031E+03
  13505 4.90157144E+03 1.57812500E+06 4.89657135E+03
  13622 4.90339198E+03 1.42187500E+06 4.89839178E+03
  13623 4.90336919E+03 3.75000000E+05 4.89836900E+03
  13645 4.90228220E+03 4.06250000E+05 4.89728207E+03
  13646 4.90225344E+03 1.85937500E+06 4.89725331E+03
  13647 4.90222238E+03 5.93750000E+05 4.89722225E+03
  13658 4.90161230E+03 1.59375000E+06 4.89661221E+03
  13774 4.90345595E+03 1.46875000E+06 4.90045975E+03
  13775 4.90341945E+03 1.07812500E+06 4.89841925E+03
  13800 4.90219818E+03 1.48437500E+06 4.89719806E+03
  13801 4.90216824E+03 7.03125000E+05 4.89716812E+03
  13810 4.90165851E+03 1.25000000E+06 4.89665841E+03
  13811 4.90163734E+03 4.21875000E+05 4.89663724E+03
  13925 4.90354126E+03 6.71875000E+05 4.90045975E+03
  13926 4.90350964E+03 1.82812500E+06 4.90045975E+03
  13927 4.90347904E+03 4.68750000E+05 4.89847884E+03
  13954 4.90213318E+03 1.90625000E+06 4.89713305E+03
  13963 4.90170072E+03 1.81250000E+06 4.89670062E+03
  14074 4.90370890E+03 8.90625000E+05 4.90045975E+03
  14075 4.90367783E+03 1.56250000E+06 4.90045975E+03
  14076 4.90363834E+03 1.56250000E+06 4.90045975E+03
  14077 4.90359885E+03 1.56250000E+06 4.90045975E+03
  14078 4.90356924E+03 1.15625000E+06 4.90045975E+03
  14107 4.90211001E+03 7.81250000E+04 4.89710989E+03
  14108 4.90208835E+03 1.64062500E+06 4.89708823E+03
  14115 4.90175409E+03 1.95312500E+06 4.89675399E+03
  14116 4.90172479E+03 3.59375000E+05 4.89672469E+03
  14261 4.90205604E+03 1.12500000E+06 4.89705592E+03
  14262 4.90201666E+03 1.76562500E+06 4.89701654E+03
  14263 4.90199156E+03 2.18750000E+05 4.89699145E+03
  14265 4.90187689E+03 6.09375000E+05 4.89687678E+03
  14266 4.90184857E+03 1.64062500E+06 4.89684846E+03
  14267 4.90180322E+03 1.76562500E+06 4.89680311E+03
  14268 4.90178082E+03 1.56250000E+05 4.89678071E+03
  14416 4.90197225E+03 1.45312500E+06 4.89697213E+03
  14417 4.90193320E+03 1.64062500E+06 4.89693309E+03
  14418 4.90189761E+03 1.03125000E+06 4.89689750E+03
  12531 4.90629277E+03 1.23437500E+06 4.90129287E+03
  12532 4.90614083E+03 1.64062500E+06 4.90114090E+03
  12533 4.90600702E+03 1.57812500E+06 4.90100708E+03
  12534 4.90585971E+03 1.56250000E+06 4.90085975E+03
  12535 4.90570859E+03 1.67187500E+06 4.90070861E+03
  12536 4.90554011E+03 1.42187500E+06 4.90054012E+03
  12684 4.90642766E+03 1.57812500E+06 4.90142777E+03
  12689 4.90545304E+03 8.59375000E+05 4.90045303E+03
  12690 4.90537282E+03 8.43750000E+05 4.90037280E+03
  12837 4.90657329E+03 1.60937500E+06 4.90157341E+03
  12843 4.90522967E+03 1.68750000E+06 4.90045975E+03
  12990 4.90673001E+03 1.62500000E+06 4.90173016E+03
  12996 4.90509658E+03 1.62500000E+06 4.90045975E+03
  13143 4.90683314E+03 5.62500000E+05 4.90183330E+03
  13144 4.90692380E+03 1.06250000E+06 4.90192396E+03
  13150 4.90490228E+03 1.07812500E+06 4.90045975E+03
  13297 4.90703588E+03 1.60937500E+06 4.90203607E+03
  13303 4.90477468E+03 1.98437500E+06 4.90045975E+03
  13450 4.90719205E+03 1.59375000E+06 4.90219225E+03
  13457 4.90458364E+03 1.89062500E+06 4.90045975E+03
  13603 4.90733479E+03 1.56250000E+06 4.90233501E+03
  13610 4.90447310E+03 5.62500000E+05 4.90045975E+03
  13611 4.90436216E+03 1.67187500E+06 4.90045975E+03
  13756 4.90749153E+03 1.67187500E+06 4.90249176E+03
  13764 4.90425945E+03 5.00000000E+05 4.90045975E+03
  13765 4.90415708E+03 1.68750000E+06 4.90045975E+03
  13908 4.90770614E+03 7.65625000E+05 4.90270640E+03
  13909 4.90761827E+03 1.09375000E+06 4.90261852E+03
  13918 4.90405158E+03 5.46875000E+05 4.90045975E+03
  13919 4.90392524E+03 1.71875000E+06 4.90045975E+03
  14061 4.90782985E+03 1.87500000E+06 4.90283013E+03
  14212 4.90815288E+03 7.96875000E+05 4.90315320E+03
  14213 4.90800487E+03 1.87500000E+06 4.90300516E+03
  14214 4.90792837E+03 2.18750000E+05 4.90292866E+03
  14363 4.90847301E+03 4.68750000E+05 4.90347337E+03
  14364 4.90836710E+03 1.78125000E+06 4.90336744E+03
  14515 4.90867902E+03 9.06250000E+05 4.90367940E+03
  14516 4.90855303E+03 1.48437500E+06 4.90355339E+03
  14667 4.90888888E+03 1.00000000E+06 4.90388929E+03
  14668 4.90877889E+03 1.21875000E+06 4.90377928E+03
  14820 4.90902532E+03 1.71875000E+06 4.90402574E+03
  14973 4.90916635E+03 1.56250000E+06 4.90416679E+03
  15126 4.90932970E+03 1.60937500E+06 4.90433016E+03
  15279 4.90947875E+03 1.82812500E+06 4.90447922E+03
  15432 4.90956945E+03 9.37500000E+04 4.90456994E+03
  15433 4.90966071E+03 1.92187500E+06 4.90466121E+03
  15568 4.91482827E+03 3.43750000E+05 4.90982938E+03
  15569 4.91473531E+03 1.62500000E+06 4.90973641E+03
  15570 4.91460978E+03 1.56250000E+06 4.90961087E+03
  15571 4.91443830E+03 1.56250000E+06 4.90943937E+03
  15572 4.91429111E+03 1.56250000E+06 4.90929216E+03
  15573 4.91412657E+03 1.57812500E+06 4.90912759E+03
  15574 4.91405072E+03 3.59375000E+05 4.90905174E+03
  15586 4.90977871E+03 5.00000000E+05 4.90477922E+03
  15587 4.90988271E+03 1.70312500E+06 4.90488323E+03
  15720 4.91506428E+03 1.64062500E+06 4.91006542E+03
  15721 4.91490446E+03 1.26562500E+06 4.90990559E+03
  15728 4.91379958E+03 1.76562500E+06 4.90880058E+03
  15729 4.91372617E+03 2.50000000E+05 4.90872715E+03
  15740 4.90998670E+03 5.00000000E+05 4.90498724E+03
  15741 4.91009070E+03 1.71875000E+06 4.90509125E+03
  15882 4.91363425E+03 1.70312500E+06 4.90863522E+03
  15883 4.91351169E+03 9.06250000E+05 4.90851264E+03
  15894 4.91019470E+03 5.00000000E+05 4.90519526E+03
  15895 4.91027096E+03 1.32812500E+06 4.90527153E+03
  16036 4.91341976E+03 1.04687500E+06 4.90842071E+03
  16037 4.91329720E+03 1.56250000E+06 4.90829813E+03
  16048 4.91041979E+03 1.60937500E+06 4.90542038E+03
  16190 4.91320528E+03 3.90625000E+05 4.90820620E+03
  16191 4.91312440E+03 1.71875000E+06 4.90812531E+03
  16201 4.91057103E+03 1.60937500E+06 4.90557163E+03
  16344 4.91298864E+03 7.34375000E+05 4.90798954E+03
  16345 4.91289548E+03 1.25000000E+06 4.90789636E+03
  16354 4.91071508E+03 1.45312500E+06 4.90571570E+03
  16498 4.91277570E+03 1.29687500E+06 4.90777657E+03
  16499 4.91268254E+03 6.87500000E+05 4.90768340E+03
  16507 4.91087467E+03 1.59375000E+06 4.90587531E+03
  16652 4.91256276E+03 1.85937500E+06 4.90756360E+03
  16653 4.91246960E+03 1.09375000E+05 4.90747043E+03
  16660 4.91102631E+03 1.62500000E+06 4.90602697E+03
  16806 4.91234795E+03 2.15625000E+06 4.90734877E+03
  16807 4.91225406E+03 1.56250000E+05 4.90725487E+03
  16813 4.91119813E+03 1.78125000E+06 4.90619881E+03
  16960 4.91217184E+03 1.59375000E+06 4.90717264E+03
  16961 4.91201492E+03 1.75000000E+06 4.90701570E+03
  16962 4.91192519E+03 1.56250000E+05 4.90692595E+03
  16964 4.91148059E+03 3.12500000E+05 4.90648130E+03
  16965 4.91136882E+03 2.06250000E+06 4.90636952E+03
  16963 4.91192519E+03 1.56250000E+05 4.90692595E+03
  13920 4.90392524E+03 1.71875000E+06 4.90045975E+03
  230632 4.91508234E+03 1.56250000E+04 4.91008234E+03
  230633 4.91507343E+03 1.87500000E+05 4.91007344E+03
  230634 4.91506527E+03 4.68750000E+04 4.91006527E+03
  231451 4.91510425E+03 1.40625000E+05 4.91010427E+03
  231452 4.91509050E+03 1.71875000E+05 4.91009051E+03
  232269 4.91513434E+03 7.81250000E+04 4.91013436E+03
  232270 4.91512243E+03 1.87500000E+05 4.91012244E+03
  232271 4.91511242E+03 3.12500000E+04 4.91011243E+03
  233087 4.91516442E+03 3.12500000E+04 4.91016445E+03
  233088 4.91515509E+03 1.87500000E+05 4.91015511E+03
  233089 4.91514250E+03 9.37500000E+04 4.91014253E+03
  233906 4.91518634E+03 1.40625000E+05 4.91018637E+03
  233907 4.91517259E+03 1.56250000E+05 4.91017262E+03
  234724 4.91521642E+03 9.37500000E+04 4.91021647E+03
  234725 4.91520408E+03 1.87500000E+05 4.91020412E+03
  234726 4.91519451E+03 3.12500000E+04 4.91019454E+03
  235542 4.91524651E+03 3.12500000E+04 4.91024656E+03
  235543 4.91523675E+03 1.71875000E+05 4.91023679E+03
  235544 4.91522459E+03 9.37500000E+04 4.91022463E+03
  236361 4.91526843E+03 1.56250000E+05 4.91026848E+03
  236362 4.91525468E+03 1.56250000E+05 4.91025473E+03
  237179 4.91529851E+03 1.09375000E+05 4.91029857E+03
  237180 4.91528574E+03 1.87500000E+05 4.91028580E+03
  237181 4.91527659E+03 1.56250000E+04 4.91027665E+03
  237997 4.91532860E+03 4.68750000E+04 4.91032867E+03
  237998 4.91531840E+03 1.71875000E+05 4.91031847E+03
  237999 4.91530668E+03 7.81250000E+04 4.91030674E+03
  238816 4.91535056E+03 1.40625000E+05 4.91035064E+03
  238817 4.91533676E+03 1.40625000E+05 4.91033683E+03
  239635 4.91536915E+03 2.03125000E+05 4.91036923E+03
  239636 4.91535851E+03 3.12500000E+04 4.91035859E+03
  240453 4.91539848E+03 1.56250000E+04 4.91039857E+03
  240454 4.91538831E+03 2.03125000E+05 4.91038840E+03
  240455 4.91537849E+03 1.56250000E+04 4.91037858E+03
  241272 4.91541846E+03 4.68750000E+04 4.91041856E+03
  241273 4.91540783E+03 1.87500000E+05 4.91040792E+03
  242091 4.91543844E+03 6.25000000E+04 4.91043854E+03
  242092 4.91542781E+03 1.71875000E+05 4.91042790E+03
  242910 4.91545843E+03 1.09375000E+05 4.91045853E+03
  242911 4.91544779E+03 1.40625000E+05 4.91044789E+03
  243729 4.91547841E+03 1.40625000E+05 4.91047852E+03
  243730 4.91546778E+03 9.37500000E+04 4.91046788E+03
  244548 4.91549840E+03 1.56250000E+05 4.91049851E+03
  244549 4.91548776E+03 7.81250000E+04 4.91048787E+03
  245367 4.91552016E+03 1.71875000E+05 4.91052028E+03
  245368 4.91550774E+03 4.68750000E+04 4.91050786E+03
  246186 4.91553675E+03 1.09375000E+05 4.91053687E+03
  246187 4.91552901E+03 6.25000000E+04 4.91052913E+03
  247006 4.91554944E+03 1.71875000E+05 4.91054957E+03
  247825 4.91556897E+03 7.81250000E+04 4.91056910E+03
  247826 4.91556123E+03 9.37500000E+04 4.91056136E+03
  248645 4.91558079E+03 1.87500000E+05 4.91058092E+03
  249464 4.91559999E+03 1.40625000E+05 4.91060013E+03
  249465 4.91559122E+03 4.68750000E+04 4.91059135E+03
  250283 4.91562047E+03 9.37500000E+04 4.91062062E+03
  250284 4.91561169E+03 1.09375000E+05 4.91061184E+03
  251102 4.91564105E+03 1.56250000E+04 4.91064120E+03
  251103 4.91563456E+03 1.56250000E+05 4.91063471E+03
  251921 4.91566091E+03 3.12500000E+04 4.91066107E+03
  251922 4.91565098E+03 2.03125000E+05 4.91065114E+03
  252740 4.91568077E+03 3.12500000E+04 4.91068093E+03
  252741 4.91567084E+03 1.87500000E+05 4.91067100E+03
  253559 4.91570063E+03 3.12500000E+04 4.91070080E+03
  253560 4.91569070E+03 1.87500000E+05 4.91069087E+03
  254378 4.91572060E+03 1.56250000E+04 4.91072077E+03
  254379 4.91571310E+03 2.03125000E+05 4.91071327E+03
  255198 4.91572872E+03 1.71875000E+05 4.91072889E+03
  256017 4.91575112E+03 4.68750000E+04 4.91075130E+03
  256018 4.91574309E+03 1.40625000E+05 4.91074327E+03
  256837 4.91576085E+03 1.71875000E+05 4.91076103E+03
  257656 4.91578164E+03 7.81250000E+04 4.91078183E+03
  257657 4.91577361E+03 1.09375000E+05 4.91077380E+03
  258476 4.91579298E+03 1.71875000E+05 4.91079317E+03
  259295 4.91581217E+03 1.09375000E+05 4.91081236E+03
  259296 4.91580413E+03 7.81250000E+04 4.91080433E+03
  260115 4.91582510E+03 1.71875000E+05 4.91082531E+03
  260934 4.91584269E+03 1.56250000E+05 4.91084289E+03
  260935 4.91583465E+03 3.12500000E+04 4.91083486E+03
  261753 4.91586518E+03 1.56250000E+04 4.91086539E+03
  261754 4.91585714E+03 1.71875000E+05 4.91085735E+03
  262573 4.91587504E+03 1.71875000E+05 4.91087525E+03
  263393 4.91588858E+03 1.71875000E+05 4.91088880E+03
  264212 4.91590599E+03 1.09375000E+05 4.91090621E+03
  264213 4.91589855E+03 4.68750000E+04 4.91089877E+03
  265032 4.91591836E+03 1.71875000E+05 4.91091858E+03
  265852 4.91593324E+03 1.71875000E+05 4.91093347E+03
  266671 4.91594946E+03 1.25000000E+05 4.91094970E+03
  266672 4.91594202E+03 3.12500000E+04 4.91094225E+03
  267491 4.91596302E+03 1.71875000E+05 4.91096326E+03
  268311 4.91597791E+03 1.56250000E+05 4.91097815E+03
  269130 4.91599294E+03 1.56250000E+05 4.91099318E+03
  269131 4.91598549E+03 1.56250000E+04 4.91098573E+03
  269950 4.91600768E+03 1.71875000E+05 4.91100793E+03
  270769 4.91602896E+03 1.56250000E+04 4.91102922E+03
  270770 4.91602152E+03 1.40625000E+05 4.91102177E+03
  271589 4.91603746E+03 1.71875000E+05 4.91103771E+03
  272409 4.91605235E+03 1.56250000E+05 4.91105261E+03
  273228 4.91607244E+03 4.68750000E+04 4.91107270E+03
  273229 4.91606499E+03 1.25000000E+05 4.91106526E+03
  274048 4.91608212E+03 1.71875000E+05 4.91108239E+03
  274868 4.91609701E+03 1.56250000E+05 4.91109728E+03
  275687 4.91611591E+03 7.81250000E+04 4.91111618E+03
  275688 4.91610847E+03 9.37500000E+04 4.91110874E+03
  276507 4.91612679E+03 1.56250000E+05 4.91112706E+03
  277327 4.91614167E+03 1.71875000E+05 4.91114196E+03
  278146 4.91615938E+03 1.09375000E+05 4.91115967E+03
  278147 4.91615194E+03 6.25000000E+04 4.91115222E+03
  278966 4.91617224E+03 1.56250000E+05 4.91117253E+03
  279786 4.91618574E+03 1.56250000E+05 4.91118603E+03
  280606 4.91619990E+03 1.56250000E+05 4.91120020E+03
  281426 4.91621407E+03 1.56250000E+05 4.91121437E+03
  282245 4.91623394E+03 3.12500000E+04 4.91123425E+03
  282246 4.91622686E+03 1.25000000E+05 4.91122716E+03
  283065 4.91624239E+03 1.56250000E+05 4.91124270E+03
  283885 4.91625656E+03 1.56250000E+05 4.91125687E+03
  284705 4.91627072E+03 1.56250000E+05 4.91127104E+03
  285525 4.91628488E+03 1.56250000E+05 4.91128520E+03
  286345 4.91629905E+03 1.71875000E+05 4.91129937E+03
  287165 4.91631321E+03 1.56250000E+05 4.91131354E+03
  287985 4.91632637E+03 1.56250000E+05 4.91132670E+03
  288805 4.91634139E+03 1.56250000E+05 4.91134173E+03
  289625 4.91635544E+03 1.56250000E+05 4.91135577E+03
  290445 4.91636948E+03 1.56250000E+05 4.91136982E+03
  291265 4.91638352E+03 1.56250000E+05 4.91138387E+03
  292085 4.91639756E+03 1.56250000E+05 4.91139791E+03
  292905 4.91641161E+03 1.56250000E+05 4.91141196E+03
  293725 4.91642565E+03 1.56250000E+05 4.91142601E+03
  294545 4.91643969E+03 1.56250000E+05 4.91144005E+03
  295365 4.91645373E+03 1.56250000E+05 4.91145410E+03
  296185 4.91646778E+03 1.56250000E+05 4.91146814E+03
  297005 4.91648185E+03 1.40625000E+05 4.91148222E+03
  297825 4.91649687E+03 1.71875000E+05 4.91149724E+03
  298645 4.91650978E+03 1.25000000E+05 4.91151016E+03
  298646 4.91651729E+03 4.68750000E+04 4.91151767E+03
  299466 4.91652690E+03 1.56250000E+05 4.91152729E+03
  300286 4.91654192E+03 1.71875000E+05 4.91154231E+03
  301106 4.91655210E+03 6.25000000E+04 4.91155249E+03
  301107 4.91655961E+03 1.09375000E+05 4.91156001E+03
  301927 4.91657196E+03 1.56250000E+05 4.91157236E+03
  302747 4.91658692E+03 1.71875000E+05 4.91158732E+03
  302748 4.91659443E+03 1.56250000E+04 4.91159483E+03
  303568 4.91660259E+03 1.71875000E+05 4.91160300E+03
  304388 4.91661684E+03 1.40625000E+05 4.91161725E+03
  304389 4.91662517E+03 3.12500000E+04 4.91162558E+03
  305209 4.91663517E+03 1.87500000E+05 4.91163558E+03
  306029 4.91664657E+03 7.81250000E+04 4.91164698E+03
  306030 4.91665489E+03 1.09375000E+05 4.91165531E+03
  306850 4.91666797E+03 1.71875000E+05 4.91166839E+03
  306851 4.91667629E+03 1.56250000E+04 4.91167671E+03
  307671 4.91668511E+03 1.87500000E+05 4.91168553E+03
  308491 4.91669769E+03 9.37500000E+04 4.91169812E+03
  308492 4.91670601E+03 9.37500000E+04 4.91170644E+03
  309312 4.91671840E+03 1.87500000E+05 4.91171883E+03
  310132 4.91672741E+03 1.56250000E+04 4.91172785E+03
  310133 4.91673573E+03 1.56250000E+05 4.91173617E+03
  310953 4.91674881E+03 1.25000000E+05 4.91174925E+03
  310954 4.91675678E+03 6.25000000E+04 4.91175723E+03
  311774 4.91676674E+03 1.56250000E+05 4.91176718E+03
  312594 4.91678113E+03 1.56250000E+05 4.91178158E+03
  313414 4.91679552E+03 1.56250000E+05 4.91179597E+03
  314234 4.91680888E+03 1.40625000E+05 4.91180934E+03
  314235 4.91681608E+03 3.12500000E+04 4.91181654E+03
  315055 4.91682431E+03 1.56250000E+05 4.91182477E+03
  315875 4.91683870E+03 1.56250000E+05 4.91183916E+03
  316695 4.91685309E+03 1.56250000E+05 4.91185356E+03
  317515 4.91686748E+03 1.71875000E+05 4.91186795E+03
  318335 4.91687692E+03 4.68750000E+04 4.91187739E+03
  318336 4.91688411E+03 1.09375000E+05 4.91188459E+03
  319156 4.91689627E+03 1.56250000E+05 4.91189675E+03
  319976 4.91691066E+03 1.56250000E+05 4.91191114E+03
  320796 4.91692505E+03 1.71875000E+05 4.91192554E+03
  321616 4.91693776E+03 1.09375000E+05 4.91193825E+03
  321617 4.91694495E+03 4.68750000E+04 4.91194545E+03
  322437 4.91695372E+03 1.56250000E+05 4.91195421E+03
  323257 4.91696800E+03 1.56250000E+05 4.91196850E+03
  324077 4.91698217E+03 1.56250000E+05 4.91198267E+03
  324897 4.91699634E+03 1.56250000E+05 4.91199684E+03
  325717 4.91701051E+03 1.56250000E+05 4.91201102E+03
  326537 4.91702468E+03 1.56250000E+05 4.91202519E+03
  327357 4.91703683E+03 1.09375000E+05 4.91203734E+03
  327358 4.91704391E+03 4.68750000E+04 4.91204443E+03
  328178 4.91705302E+03 1.56250000E+05 4.91205354E+03
  328998 4.91706718E+03 1.56250000E+05 4.91206771E+03
  329818 4.91708135E+03 1.71875000E+05 4.91208188E+03
  330638 4.91709552E+03 1.56250000E+05 4.91209606E+03
  331458 4.91710969E+03 1.56250000E+05 4.91211023E+03
  332278 4.91712386E+03 1.56250000E+05 4.91212440E+03
  333098 4.91713803E+03 1.56250000E+05 4.91213857E+03
  333918 4.91714613E+03 1.56250000E+04 4.91214668E+03
  333919 4.91715322E+03 1.40625000E+05 4.91215377E+03
  334739 4.91716426E+03 1.56250000E+05 4.91216481E+03
  335559 4.91718142E+03 1.56250000E+05 4.91218198E+03
  336379 4.91719423E+03 1.25000000E+05 4.91219479E+03
  336380 4.91720161E+03 4.68750000E+04 4.91220217E+03
  337200 4.91721095E+03 1.56250000E+05 4.91221151E+03
  338020 4.91722571E+03 1.71875000E+05 4.91222628E+03
  338840 4.91723913E+03 1.40625000E+05 4.91223970E+03
  338841 4.91724651E+03 1.56250000E+04 4.91224709E+03
  339661 4.91725523E+03 1.71875000E+05 4.91225581E+03
  340481 4.91727000E+03 1.56250000E+05 4.91227058E+03
  341301 4.91728404E+03 1.56250000E+05 4.91228462E+03
  341302 4.91729142E+03 1.56250000E+04 4.91229200E+03
  342122 4.91729952E+03 1.56250000E+05 4.91230011E+03
  342942 4.91731356E+03 1.56250000E+05 4.91231415E+03
  343762 4.91732866E+03 1.56250000E+05 4.91232925E+03
  343763 4.91733606E+03 1.56250000E+04 4.91233666E+03
  344583 4.91734390E+03 1.56250000E+05 4.91234449E+03
  345403 4.91735870E+03 1.71875000E+05 4.91235930E+03
  346223 4.91737306E+03 1.56250000E+05 4.91237367E+03
  346224 4.91738047E+03 1.56250000E+04 4.91238107E+03
  347044 4.91738830E+03 1.56250000E+05 4.91238891E+03
  347864 4.91740311E+03 1.71875000E+05 4.91240372E+03
  348684 4.91741747E+03 1.56250000E+05 4.91241809E+03
  348685 4.91742487E+03 1.56250000E+04 4.91242549E+03
  349505 4.91743271E+03 1.71875000E+05 4.91243333E+03
  350325 4.91744751E+03 1.56250000E+05 4.91244814E+03
  351145 4.91746188E+03 1.56250000E+05 4.91246251E+03
  351146 4.91746928E+03 1.56250000E+04 4.91246991E+03
  351966 4.91747712E+03 1.56250000E+05 4.91247775E+03
  352786 4.91749192E+03 1.71875000E+05 4.91249255E+03
  353606 4.91750629E+03 1.56250000E+05 4.91250692E+03
  353607 4.91751369E+03 1.56250000E+04 4.91251433E+03
  354427 4.91752152E+03 1.71875000E+05 4.91252217E+03
  355247 4.91753632E+03 1.56250000E+05 4.91253697E+03
  356067 4.91755069E+03 1.56250000E+05 4.91255134E+03
  356068 4.91755809E+03 1.56250000E+04 4.91255875E+03
  356888 4.91756818E+03 1.56250000E+05 4.91256883E+03
  357708 4.91758103E+03 1.71875000E+05 4.91258169E+03
  358406 4.92156126E+03 1.40625000E+05 4.91656296E+03
  358407 4.92155299E+03 1.56250000E+04 4.91655469E+03
  358528 4.91759222E+03 7.81250000E+04 4.91259288E+03
  358529 4.91759989E+03 9.37500000E+04 4.91260056E+03
  359223 4.92159961E+03 3.12500000E+04 4.91660132E+03
  359224 4.92159059E+03 1.71875000E+05 4.91659230E+03
  359225 4.92157518E+03 1.71875000E+05 4.91657688E+03
  359226 4.92156719E+03 1.56250000E+04 4.91656889E+03
  359227 4.92154592E+03 1.56250000E+05 4.91654761E+03
  359228 4.92153182E+03 1.71875000E+05 4.91653351E+03
  359229 4.92151768E+03 1.56250000E+05 4.91651937E+03
  359230 4.92150124E+03 1.40625000E+05 4.91650292E+03
  359231 4.92148936E+03 1.56250000E+05 4.91649104E+03
  359349 4.91761171E+03 1.71875000E+05 4.91261238E+03
  360041 4.92163204E+03 6.25000000E+04 4.91663376E+03
  360042 4.92162143E+03 1.71875000E+05 4.91662315E+03
  360043 4.92160732E+03 1.40625000E+05 4.91660904E+03
  360051 4.92148114E+03 3.12500000E+04 4.91648283E+03
  360052 4.92147179E+03 1.87500000E+05 4.91647347E+03
  360053 4.92145940E+03 7.81250000E+04 4.91646108E+03
  360169 4.91762500E+03 1.25000000E+05 4.91262567E+03
  360170 4.91763267E+03 4.68750000E+04 4.91263334E+03
  360859 4.92166446E+03 9.37500000E+04 4.91666619E+03
  360860 4.92165227E+03 1.71875000E+05 4.91665399E+03
  360861 4.92163975E+03 1.09375000E+05 4.91664147E+03
  360873 4.92145119E+03 9.37500000E+04 4.91645286E+03
  360874 4.92143894E+03 1.87500000E+05 4.91644061E+03
  360875 4.92142944E+03 3.12500000E+04 4.91643111E+03
  360990 4.91764239E+03 1.71875000E+05 4.91264307E+03
  361677 4.92169688E+03 1.40625000E+05 4.91669862E+03
  361678 4.92168310E+03 1.71875000E+05 4.91668484E+03
  361679 4.92167217E+03 7.81250000E+04 4.91667390E+03
  361695 4.92142123E+03 1.56250000E+05 4.91642289E+03
  361696 4.92140770E+03 1.40625000E+05 4.91640936E+03
  361810 4.91765773E+03 1.71875000E+05 4.91265841E+03
  362495 4.92172931E+03 1.71875000E+05 4.91673105E+03
  362496 4.92171394E+03 1.71875000E+05 4.91671568E+03
  362497 4.92170459E+03 3.12500000E+04 4.91670633E+03
  362517 4.92138965E+03 1.87500000E+05 4.91639131E+03
  362518 4.92137774E+03 7.81250000E+04 4.91637940E+03
  362630 4.91766544E+03 1.56250000E+04 4.91266612E+03
  362631 4.91767532E+03 1.56250000E+05 4.91267600E+03
  363312 4.92176944E+03 3.12500000E+04 4.91677120E+03
  363313 4.92176019E+03 1.71875000E+05 4.91676195E+03
  363314 4.92174478E+03 1.71875000E+05 4.91674652E+03
  363315 4.92173702E+03 1.56250000E+04 4.91673876E+03
  363339 4.92135706E+03 1.71875000E+05 4.91635870E+03
  363451 4.91768769E+03 1.56250000E+05 4.91268838E+03
  364130 4.92180186E+03 6.25000000E+04 4.91680363E+03
  364131 4.92179103E+03 1.71875000E+05 4.91679279E+03
  364132 4.92177715E+03 1.40625000E+05 4.91677891E+03
  364160 4.92133897E+03 1.87500000E+05 4.91634061E+03
  364161 4.92132772E+03 6.25000000E+04 4.91632936E+03
  364271 4.91770173E+03 1.56250000E+05 4.91270242E+03
  364948 4.92183429E+03 9.37500000E+04 4.91683606E+03
  364949 4.92182187E+03 1.71875000E+05 4.91682364E+03
  364950 4.92180957E+03 1.09375000E+05 4.91681134E+03
  364981 4.92131909E+03 1.40625000E+05 4.91632073E+03
  364982 4.92130701E+03 1.25000000E+05 4.91630864E+03
  365091 4.91771577E+03 1.56250000E+05 4.91271647E+03
  365766 4.92186671E+03 1.40625000E+05 4.91686849E+03
  365767 4.92185270E+03 1.71875000E+05 4.91685448E+03
  365768 4.92184200E+03 7.81250000E+04 4.91684377E+03
  365802 4.92129607E+03 1.56250000E+05 4.91629770E+03
  365911 4.91772982E+03 1.56250000E+05 4.91273052E+03
  366583 4.92190901E+03 6.25000000E+04 4.91691080E+03
  366584 4.92189854E+03 1.71875000E+05 4.91690033E+03
  366585 4.92188462E+03 1.56250000E+05 4.91688641E+03
  366586 4.92187442E+03 3.12500000E+04 4.91687620E+03
  366623 4.92127270E+03 1.56250000E+04 4.91627432E+03
  366731 4.91774386E+03 1.56250000E+05 4.91274456E+03
  367344 4.92275124E+03 1.25000000E+05 4.91775325E+03
  367345 4.92273778E+03 1.56250000E+05 4.91773979E+03
  367346 4.92272322E+03 1.56250000E+05 4.91772523E+03
  367347 4.92270916E+03 1.56250000E+05 4.91771116E+03
  367348 4.92269510E+03 1.56250000E+05 4.91769710E+03
  367349 4.92268104E+03 1.56250000E+05 4.91768303E+03
  367350 4.92266698E+03 1.56250000E+05 4.91766897E+03
  367351 4.92265292E+03 1.56250000E+05 4.91765490E+03
  367352 4.92263886E+03 1.56250000E+05 4.91764084E+03
  367353 4.92262479E+03 1.56250000E+05 4.91762677E+03
  367354 4.92261073E+03 1.56250000E+05 4.91761271E+03
  367355 4.92259667E+03 1.56250000E+05 4.91759864E+03
  367356 4.92258261E+03 1.56250000E+05 4.91758458E+03
  367357 4.92256855E+03 1.71875000E+05 4.91757051E+03
  367358 4.92255449E+03 1.56250000E+05 4.91755645E+03
  367359 4.92254043E+03 1.56250000E+05 4.91754238E+03
  367360 4.92253190E+03 3.12500000E+04 4.91753385E+03
  367400 4.92195258E+03 4.68750000E+04 4.91695438E+03
  367401 4.92194317E+03 1.71875000E+05 4.91694497E+03
  367402 4.92192829E+03 1.56250000E+05 4.91693009E+03
  367403 4.92191645E+03 1.09375000E+05 4.91691824E+03
  367443 4.92126265E+03 2.18750000E+05 4.91626428E+03
  367444 4.92125272E+03 1.56250000E+04 4.91625434E+03
  367551 4.91775790E+03 1.56250000E+05 4.91275861E+03
  368162 4.92278087E+03 4.68750000E+04 4.91778289E+03
  368163 4.92277074E+03 1.87500000E+05 4.91777276E+03
  368180 4.92252487E+03 1.25000000E+05 4.91752682E+03
  368181 4.92251231E+03 1.56250000E+05 4.91751426E+03
  368182 4.92249824E+03 1.56250000E+05 4.91750019E+03
  368183 4.92248418E+03 1.56250000E+05 4.91748613E+03
  368184 4.92247012E+03 1.56250000E+05 4.91747206E+03
  368185 4.92245606E+03 1.56250000E+05 4.91745800E+03
  368186 4.92244200E+03 1.56250000E+05 4.91744393E+03
  368187 4.92242794E+03 1.56250000E+05 4.91742987E+03
  368188 4.92241388E+03 1.56250000E+05 4.91741580E+03
  368189 4.92239982E+03 1.56250000E+05 4.91740174E+03