# File generated by Flopy version 3.8.0 on 10/09/2024 at 07:14:35.
BEGIN options
END options

BEGIN TIMING
  TDIS6  mf6_riv_reg.tdis
END TIMING

BEGIN MODELS
  gwf6  mf6_riv_reg.nam  mf6model
END MODELS

BEGIN EXCHANGES
END EXCHANGES

BEGIN SOLUTIONGROUP  1
  ims6  mf6_riv_reg.ims  mf6model  

END SOLUTIONGROUP  1

