# File generated by Flopy version 3.8.0 on 06/15/2025 at 09:52:16.
BEGIN options
  PRINT_OPTION  all
  COMPLEXITY  moderate
END options

BEGIN nonlinear
  OUTER_DVCLOSE       0.00100000
  UNDER_RELAXATION  dbd
END nonlinear

BEGIN linear
  INNER_DVCLOSE  1.00000000E-06
END linear

