ptf ~
# File generated by Flopy version 3.8.0 on 06/15/2025 at 09:53:28.
BEGIN options
END options

BEGIN griddata
  iconvert
    CONSTANT  3
  ss
    CONSTANT  ~     Ss     ~
  sy
    CONSTANT       ~     Sy     ~
END griddata

BEGIN period  1
  STEADY-STATE
END period  1

BEGIN period  2
  TRANSIENT
END period  2

