ptf ~
# File generated by Flopy version 3.8.0 on 06/15/2025 at 09:52:17.
BEGIN options
  SAVE_FLOWS
END options

BEGIN griddata
  icelltype
    CONSTANT  1
  k  LAYERED
    INTERNAL  FACTOR  ~  hk1  ~
           5.36173663       5.34613741       5.33053819       5.31601944       5.30203287       5.28804630       5.27403327       5.25976512       5.24549697       5.23122882       5.21606147       5.20005743       5.18405339       5.16787703       5.15146973       5.13506243       5.11928366       5.10474329       5.09020292       5.07566255       5.06406534       5.05339416       5.04272298       5.03326215       5.02439745       5.01553275       5.00608383       4.99100409       4.97592435       4.96084461       4.94458528       4.92722833       4.90987138       4.88448075       4.84832424       4.81216773       4.77686047       4.74322648       4.70959249       4.67595850       4.65699197       4.64264036       4.62828875       4.61345950       4.59652141       4.57958332       4.56258181       4.54496902       4.52735623       4.50974344       4.49212909       4.47451474       4.45690039       4.43630432       4.41171248       4.38712064       4.36574119       4.35069109       4.33564099       4.32059089       4.30196663       4.28221781       4.26246899       4.24297008       4.22457456       4.20617904       4.18756213       4.16681140       4.14606067       4.12532420       4.10885138       4.09237856       4.07590574       4.05885611       4.04103350       4.02321089       4.00538828       3.98504730       3.96426654       3.94348578       3.92167442       3.89953880       3.87740318       3.85735064       3.83832410       3.81929756       3.79950578       3.77233838       3.74517098       3.71800358       3.69305901       3.67018278       3.64730655       3.62947095       3.61839027       3.60730959       3.59622891       3.57666313       3.55561561       3.53456809       3.52276983       3.51388173       3.50499363       3.49560018       3.48595782       3.47631546       3.46676750       3.45812939       3.44949128       3.44085317       3.43272597       3.42507417       3.41742237       3.40960424       3.40156322       3.39352220       3.38543444       3.37725458       3.36907472       3.36089486       3.35335341       3.34601283       3.33867225       3.33121111       3.32321767       3.31522423       3.30729014       3.29992811       3.29256608       3.28520915       3.27937553       3.27354191       3.26770829       3.26158684       3.25507969       3.24857254       3.24290256       3.23888205       3.23486154       3.23084103       3.22447928       3.21738089       3.21028250       3.20584362       3.20271465       3.19958568       3.19617806       3.19008470       3.18399134       3.17789798       3.17089715       3.16305191       3.15520667       3.14363758       3.12707818       3.11051878       3.09395938       3.08205423       3.07096185       3.05986947       3.03933915       3.01583931       2.99233947       2.97062457       2.95679049       2.94295641       2.92908674       2.91487397       2.90066120       2.88641528       2.86225712       2.83809896       2.81394080       2.79469526       2.78203309       2.76937092       2.75384879       2.73269168       2.71153457       2.69037746       2.67158544       2.65353756       2.63548969       2.62122168       2.60881539       2.59640910       2.58385415       2.56986641       2.55587867       2.54189093       2.53090529       2.52271311       2.51452092       2.50762739       2.50247416       2.49732093       2.48625262       2.46352981       2.44080701       2.41808420
           5.38283485       5.36723563       5.35271688       5.33873031       5.32474374       5.31075717       5.29674414       5.28247599       5.26820784       5.25393969       5.23967154       5.22450419       5.20850015       5.19232379       5.17591649       5.16013772       5.14559735       5.13105698       5.11651661       5.10197624       5.09037903       5.07970785       5.07024702       5.06138232       5.05251762       5.04365292       5.03420400       5.01912426       5.00404452       4.98896478       4.97388504       4.95762571       4.94026876       4.91487813       4.87872162       4.84341436       4.80978037       4.77614638       4.74251239       4.70887840       4.68991187       4.67556026       4.66120865       4.64685704       4.63202779       4.61508970       4.59808819       4.58047540       4.56286261       4.54524826       4.52763391       4.51001956       4.49240521       4.47180914       4.44721730       4.42583785       4.41078775       4.39573765       4.38068755       4.36563745       4.34701319       4.32726437       4.30751555       4.28776673       4.26826782       4.24987230       4.23125539       4.21050466       4.18976819       4.17329537       4.15682255       4.14034973       4.12387691       4.10682728       4.08900467       4.07118206       4.05335945       4.03553684       4.01519586       3.99441510       3.97260374       3.95046812       3.93041558       3.91138904       3.89236250       3.87333596       3.85354418       3.82637678       3.79920938       3.77204198       3.74487458       3.71993001       3.69705378       3.67921818       3.66813750       3.65705682       3.64597614       3.63489546       3.61532968       3.59428216       3.58248390       3.57359580       3.56420235       3.55455999       3.54491763       3.53527527       3.52572731       3.51708920       3.50845109       3.49981298       3.49117487       3.48304767       3.47539587       3.46757774       3.45953672       3.45144896       3.44326910       3.43508924       3.42690938       3.41872952       3.41118807       3.40384749       3.39650691       3.38916633       3.38170519       3.37371175       3.36577766       3.35841563       3.35105870       3.34522508       3.33939146       3.33355784       3.32772422       3.32160277       3.31509562       3.30942564       3.30540513       3.30138462       3.29736411       3.29334360       3.28698185       3.27988346       3.27544458       3.27231561       3.26918664       3.26605767       3.26265005       3.25655669       3.25046333       3.24436997       3.23827661       3.23127578       3.22343054       3.21186145       3.19530205       3.17874265       3.16218325       3.14562385       3.13371870       3.12262632       3.10209600       3.07859616       3.05509632       3.03159648       3.00988158       2.99604750       2.98217783       2.96796506       2.95371914       2.92956098       2.90540282       2.88124466       2.85708650       2.83784096       2.82517879       2.80965665       2.78849954       2.76734243       2.74618532       2.72502821       2.70623620       2.68818832       2.67392031       2.66151402       2.64910773       2.63670144       2.62414649       2.61015875       2.59617101       2.58218327       2.56819553       2.55720989       2.54901771       2.54212417       2.53697095       2.52590263       2.50317982       2.48045702       2.45773422       2.43501141
           5.40393307       5.38941432       5.37542775       5.36144118       5.34745461       5.33346804       5.31945501       5.30518686       5.29091871       5.27665056       5.26238241       5.24811426       5.23294691       5.21677055       5.20099178       5.18645141       5.17191104       5.15737067       5.14283030       5.12828993       5.11669272       5.10723189       5.09836719       5.08950249       5.08063779       5.07177309       5.06232417       5.04724443       5.03216469       5.01708495       5.00200521       4.98692547       4.97066614       4.94527551       4.90996825       4.87633426       4.84270027       4.80906628       4.77543229       4.74179830       4.72283177       4.70848016       4.69412855       4.67977694       4.66542533       4.65059608       4.63359457       4.61598178       4.59836743       4.58075308       4.56313873       4.54552438       4.52791003       4.50731396       4.48593451       4.47088441       4.45583431       4.44078421       4.42573411       4.41068401       4.39205975       4.37231093       4.35256211       4.33281329       4.31306447       4.29356556       4.27494865       4.25421218       4.23773936       4.22126654       4.20479372       4.18832090       4.17184808       4.15479845       4.13697584       4.11915323       4.10133062       4.08350801       4.06568540       4.04534442       4.02353306       4.00348052       3.98445398       3.96542744       3.94640090       3.92737436       3.90758258       3.88041518       3.85324778       3.82608038       3.79891298       3.77174558       3.74680101       3.72896541       3.71788473       3.70680405       3.69572337       3.68464269       3.67356201       3.65399623       3.64219797       3.63280452       3.62316216       3.61351980       3.60387744       3.59423508       3.58468712       3.57604901       3.56741090       3.55877279       3.55013468       3.54149657       3.53336937       3.52555124       3.51746348       3.50928362       3.50110376       3.49292390       3.48474404       3.47656418       3.46902273       3.46168215       3.45434157       3.44700099       3.43966041       3.43219927       3.42426518       3.41690825       3.41107463       3.40524101       3.39940739       3.39357377       3.38774015       3.38161870       3.37594872       3.37192821       3.36790770       3.36388719       3.35986668       3.35584617       3.34948442       3.34504554       3.34191657       3.33878760       3.33565863       3.33252966       3.32912204       3.32302868       3.31693532       3.31084196       3.30474860       3.29865524       3.29165441       3.28008532       3.26352592       3.24696652       3.23040712       3.21384772       3.19728832       3.18538317       3.16485285       3.14135301       3.11785317       3.09435333       3.07085349       3.04913859       3.03526892       3.02102300       2.99686484       2.97270668       2.94854852       2.92439036       2.90023220       2.88098666       2.86546452       2.84430741       2.82315030       2.80199319       2.78083608       2.75967897       2.74088696       2.72661894       2.71421265       2.70180636       2.68940007       2.67699378       2.66443884       2.65045110       2.63646336       2.62247562       2.60848788       2.59450014       2.58351450       2.57662096       2.56555264       2.54282984       2.52010703       2.49738423       2.47466143       2.45193862
           5.42611176       5.41212519       5.39813862       5.38415205       5.37016548       5.35617891       5.34216588       5.32789773       5.31362958       5.29936143       5.28509328       5.27082513       5.25655698       5.24184584       5.22730547       5.21276510       5.19822473       5.18368436       5.16914399       5.15460362       5.14421676       5.13535206       5.12648736       5.11762266       5.10875796       5.09989326       5.09044434       5.07536460       5.06028486       5.04520512       5.03012538       5.01504564       4.99996590       4.97652214       4.94288815       4.90925416       4.87562017       4.84198618       4.80835219       4.77471820       4.75575167       4.74140006       4.72704845       4.71269684       4.69834523       4.68399362       4.66910095       4.65148660       4.63387225       4.61625790       4.59864355       4.58102920       4.56341485       4.54603117       4.53098107       4.51593097       4.50088087       4.48583077       4.47078067       4.45573057       4.43710631       4.41735749       4.39760867       4.37785985       4.35811103       4.33836221       4.31865617       4.30218335       4.28571053       4.26923771       4.25276489       4.23629207       4.21981925       4.20276962       4.18494701       4.16712440       4.14930179       4.13147918       4.11365657       4.09583396       4.07654546       4.05751892       4.03849238       4.01946584       4.00043930       3.98141276       3.96162098       3.93445358       3.90728618       3.88011878       3.85295138       3.82578398       3.79861658       3.77871264       3.76763196       3.75655128       3.74547060       3.73438992       3.72330924       3.71222856       3.70140669       3.69176433       3.68212197       3.67247961       3.66283725       3.65319489       3.64364693       3.63500882       3.62637071       3.61773260       3.60909449       3.60045638       3.59181827       3.58347800       3.57529814       3.56711828       3.55893842       3.55075856       3.54257870       3.53439884       3.52685739       3.51951681       3.51217623       3.50483565       3.49749507       3.49015449       3.48275780       3.47692418       3.47109056       3.46525694       3.45942332       3.45358970       3.44775608       3.44247180       3.43845129       3.43443078       3.43041027       3.42638976       3.42236925       3.41834874       3.41464650       3.41151753       3.40838856       3.40525959       3.40213062       3.39900165       3.39559403       3.38950067       3.38340731       3.37731395       3.37122059       3.36512723       3.35903387       3.34830919       3.33174979       3.31519039       3.29863099       3.28207159       3.26551219       3.24895279       3.22760970       3.20410986       3.18061002       3.15711018       3.13361034       3.11011050       3.08832686       3.06416870       3.04001054       3.01585238       2.99169422       2.96753606       2.94337790       2.92127239       2.90011528       2.87895817       2.85780106       2.83664395       2.81548684       2.79432973       2.77931758       2.76691129       2.75450500       2.74209871       2.72969242       2.71728613       2.70473118       2.69074344       2.67675570       2.66276796       2.64878022       2.63479248       2.62080474       2.60520265       2.58247985       2.55975705       2.53703424       2.51431144       2.49158863       2.46886583
           5.44855712       5.43483464       5.42084807       5.40686150       5.39287493       5.37888836       5.36487533       5.35060718       5.33633903       5.32207088       5.30780273       5.29353458       5.27990796       5.26749968       5.25395749       5.23941712       5.22487675       5.21033638       5.19579601       5.18125564       5.16134661       5.15058886       5.14172416       5.13285946       5.12399476       5.11513006       5.10568115       5.09060141       5.07552167       5.06044193       5.04536219       5.03028245       5.01642524       5.00263172       4.97704610       4.94341211       4.90977812       4.87614413       4.84251014       4.80887615       4.79063347       4.77642333       4.76207172       4.74772011       4.73336850       4.71901689       4.70496593       4.69261955       4.67500520       4.65739085       4.63977650       4.62216215       4.60454780       4.58802924       4.57297914       4.55792904       4.54287894       4.52782884       4.51277874       4.49725203       4.47845752       4.45870870       4.43895988       4.41921106       4.39946224       4.37974092       4.36815535       4.35499429       4.33852147       4.32204865       4.30557583       4.28910301       4.27263019       4.25558056       4.23775795       4.21993534       4.20211273       4.18429012       4.16646751       4.15145492       4.13682010       4.11839939       4.09937285       4.08034631       4.06131977       4.04229323       4.02250145       3.99533405       3.96816665       3.94099925       3.91383185       3.88666445       3.86035497       3.84152126       3.83044058       3.81935990       3.80827922       3.79719854       3.78611786       3.77629168       3.76675321       3.75711085       3.74746849       3.73782613       3.72818377       3.71853989       3.70842747       3.69847610       3.68983799       3.68119988       3.67256177       3.66392366       3.65528555       3.64620096       3.63729663       3.62911677       3.62093691       3.61275705       3.60457719       3.59639733       3.58823645       3.58077481       3.57343423       3.56609365       3.55875307       3.55141249       3.54421356       3.53837994       3.53254632       3.52671270       3.52087908       3.51504546       3.50930100       3.50520813       3.50210609       3.49808558       3.49406507       3.49004456       3.48602405       3.48200354       3.47866119       3.47553222       3.47240325       3.46927428       3.46614531       3.46303166       3.46447000       3.46430315       3.45820979       3.45211643       3.44602307       3.43992971       3.43383635       3.42327051       3.40671111       3.39015171       3.37359231       3.35703291       3.34047351       3.32113283       3.29830056       3.27480072       3.25130088       3.22780104       3.20430120       3.18074359       3.14038588       3.10673633       3.08257817       3.05842001       3.03426185       3.01010369       2.98594553       2.96306982       2.94191271       2.92075560       2.89959849       2.87844138       2.85728427       2.83422019       2.81903835       2.80663206       2.79422577       2.78181948       2.76941319       2.75697027       2.73446032       2.72047258       2.70648484       2.69249710       2.67850936       2.66452162       2.64879179       2.63102164       2.61158522       2.58886242       2.56613961       2.54341681       2.52069400       2.49797120
           5.46948998       5.45727986       5.44355738       5.42957081       5.41558424       5.40159767       5.38758464       5.37331649       5.35904834       5.34478019       5.33051204       5.31688542       5.30452281       5.29211453       5.27964506       5.26610287       5.25156250       5.23702213       5.22248176       5.20794139       5.18803236       5.16643416       5.15567641       5.14681171       5.13794701       5.12908231       5.11963340       5.10455366       5.08947392       5.07439418       5.05931444       5.04545723       5.03400878       5.02021526       5.00327912       4.97769350       4.94405951       4.91042552       4.87679153       4.84315754       4.82491486       4.81151485       4.79730471       4.78295310       4.76860149       4.75424988       4.74019892       4.72904570       4.71669932       4.69908497       4.68147062       4.66385627       4.64624192       4.62972336       4.61467326       4.59962316       4.58457306       4.56952296       4.55399625       4.53823479       4.51944028       4.49969146       4.47994264       4.46019382       4.44047250       4.42897257       4.41738700       4.40497603       4.39181497       4.37534215       4.35886933       4.34239651       4.32592369       4.30887406       4.29105145       4.27322884       4.25540623       4.23758362       4.22257103       4.20894248       4.19430766       4.17935623       4.16093552       4.14190898       4.12288244       4.10385590       4.08406412       4.05689672       4.02972932       4.00256192       3.97539452       3.94908504       3.92446590       3.90563219       3.89455151       3.88347083       3.87239015       3.86130947       3.85148329       3.84227500       3.83273653       3.82309417       3.81345181       3.80380945       3.79416557       3.78406730       3.77395488       3.76370607       3.75375470       3.74511659       3.73647848       3.72784037       3.71920226       3.71011767       3.70043475       3.69153042       3.68335056       3.67517070       3.66699084       3.65881098       3.65065010       3.64249520       3.63503356       3.62769298       3.62035240       3.61301182       3.60581289       3.59997927       3.59414565       3.58831203       3.58247841       3.57673395       3.57116514       3.56707227       3.56495730       3.56185526       3.55783475       3.55381424       3.54979373       3.54577322       3.54243087       3.53930190       3.53617293       3.53304396       3.52993031       3.53139593       3.53283427       3.53400973       3.53384288       3.52774952       3.52165616       3.51556280       3.50946944       3.49890360       3.48234420       3.46578480       3.44922540       3.43266600       3.41332532       3.39261476       3.36978249       3.34628265       3.32278281       3.29928297       3.27572536       3.23489470       3.19453699       3.15873772       3.12508817       3.10093001       3.07677185       3.05261369       3.02845553       3.00557982       2.98442271       2.96326560       2.94210849       2.92095138       2.89788730       2.87388397       2.85870213       2.84629584       2.83388955       2.82148326       2.80904034       2.78564619       2.76313624       2.74914850       2.73516076       2.72117302       2.70718528       2.69145545       2.67229319       2.65452304       2.63861845       2.61918203       2.59645923       2.57373642       2.55101362       2.52829081
           5.49042284       5.47821272       5.46600260       5.45228012       5.43829355       5.42430698       5.41029395       5.39602580       5.38175765       5.36748950       5.35386288       5.34150027       5.32913766       5.31672938       5.30425991       5.29179044       5.27824825       5.26370788       5.24916751       5.23462714       5.21471811       5.19311991       5.17152171       5.16076396       5.15189926       5.14303456       5.13358565       5.11850591       5.10342617       5.08834643       5.07448922       5.06304077       5.05159232       5.03779880       5.02086266       5.00392652       4.97834090       4.94470691       4.91107292       4.87743893       4.85919625       4.84579624       4.83239623       4.81818609       4.80383448       4.78948287       4.77543191       4.76427869       4.75312547       4.74077909       4.72316474       4.70555039       4.68793604       4.67141748       4.65636738       4.64131728       4.62626718       4.61074047       4.59497901       4.57921755       4.56042304       4.54067422       4.52092540       4.50120408       4.48970415       4.47820422       4.46661865       4.45420768       4.44179671       4.42863565       4.41216283       4.39569001       4.37921719       4.36216756       4.34434495       4.32652234       4.30869973       4.29368714       4.28005859       4.26643004       4.25179522       4.23684379       4.22189236       4.20347165       4.18444511       4.16541857       4.14562679       4.11845939       4.09129199       4.06412459       4.03781511       4.01319597       3.98857683       3.96974312       3.95866244       3.94758176       3.93650108       3.92667490       3.91746661       3.90825832       3.89871985       3.88907749       3.87943513       3.86979125       3.85969298       3.84959471       3.83948229       3.82923348       3.81898467       3.80903330       3.80039519       3.79175708       3.78311897       3.77403438       3.76435146       3.75466854       3.74576421       3.73758435       3.72940449       3.72122463       3.71306375       3.70490885       3.69675395       3.68929231       3.68195173       3.67461115       3.66741222       3.66157860       3.65574498       3.64991136       3.64416690       3.63859809       3.63302928       3.62893641       3.62682144       3.62470647       3.62160443       3.61758392       3.61356341       3.60954290       3.60620055       3.60307158       3.59994261       3.59682896       3.59829458       3.59976020       3.60119854       3.60237400       3.60354946       3.60338261       3.59728925       3.59119589       3.58510253       3.57453669       3.55797729       3.54141789       3.52485849       3.50551781       3.48480725       3.46409669       3.44126442       3.41776458       3.39426474       3.37070713       3.32987647       3.28904581       3.24868810       3.21288883       3.17708956       3.14344001       3.11928185       3.09512369       3.07096553       3.04808982       3.02693271       3.00577560       2.98461849       2.96155441       2.93755108       2.91354775       2.89836591       2.88595962       2.87355333       2.86111041       2.83771626       2.81432211       2.79181216       2.77782442       2.76383668       2.74984894       2.73411911       2.71495685       2.69579459       2.67802444       2.66211985       2.64621526       2.62677884       2.60405604       2.58133323       2.55861043
           5.51135570       5.49914558       5.48693546       5.47472534       5.46100286       5.44701629       5.43300326       5.41873511       5.40446696       5.39084034       5.37847773       5.36611512       5.35375251       5.34134423       5.32887476       5.31640529       5.30393582       5.29039363       5.27585326       5.26131289       5.24140386       5.21980566       5.19820746       5.17660926       5.16585151       5.15698681       5.14753790       5.13245816       5.11737842       5.10352121       5.09207276       5.08062431       5.06917586       5.05538234       5.03844620       5.02151006       5.00457392       4.97898830       4.94535431       4.91172032       4.89347764       4.88007763       4.86667762       4.85327761       4.83906747       4.82471586       4.81066490       4.79951168       4.78835846       4.77720524       4.76485886       4.74724451       4.72963016       4.71311160       4.69806150       4.68301140       4.66748469       4.65172323       4.63596177       4.62020031       4.60140580       4.58165698       4.56193566       4.55043573       4.53893580       4.52743587       4.51585030       4.50343933       4.49102836       4.47861739       4.46545633       4.44898351       4.43251069       4.41546106       4.39763845       4.37981584       4.36480325       4.35117470       4.33754615       4.32391760       4.30928278       4.29433135       4.27937992       4.26442849       4.24600778       4.22698124       4.20718946       4.18002206       4.15285466       4.12654518       4.10192604       4.07730690       4.05268776       4.03385405       4.02277337       4.01169269       4.00186651       3.99265822       3.98344993       3.97424164       3.96470317       3.95506081       3.94541693       3.93531866       3.92522039       3.91512212       3.90500970       3.89476089       3.88451208       3.87426327       3.86431190       3.85567379       3.84703568       3.83795109       3.82826817       3.81858525       3.80890233       3.79999800       3.79181814       3.78363828       3.77547740       3.76732250       3.75916760       3.75101270       3.74355106       3.73621048       3.72901155       3.72317793       3.71734431       3.71159985       3.70603104       3.70046223       3.69489342       3.69080055       3.68868558       3.68657061       3.68445564       3.68135360       3.67733309       3.67331258       3.66997023       3.66684126       3.66372761       3.66519323       3.66665885       3.66812447       3.66956281       3.67073827       3.67191373       3.67308919       3.67292234       3.66682898       3.66073562       3.65016978       3.63361038       3.61705098       3.59771030       3.57699974       3.55628918       3.53557862       3.51274635       3.48924651       3.46568890       3.42485824       3.38402758       3.34319692       3.30283921       3.26703994       3.23124067       3.19544140       3.16179185       3.13763369       3.11347553       3.09059982       3.06944271       3.04828560       3.02522152       3.00121819       2.97721486       2.95321153       2.93802969       2.92562340       2.91318048       2.88978633       2.86639218       2.84299803       2.82048808       2.80650034       2.79251260       2.77678277       2.75762051       2.73845825       2.71929599       2.70152584       2.68562125       2.66971666       2.65381207       2.63437565       2.61165285       2.58893004