# File generated by Flopy version 3.8.0 on 06/15/2025 at 09:52:17.
BEGIN options
END options

BEGIN griddata
  strt  LAYERED
    CONSTANT    4924.00000000
    CONSTANT    4923.00000000
END griddata

