# File generated by Flopy version 3.8.0 on 06/15/2025 at 09:52:16.
BEGIN options
  SAVE_FLOWS
  NEWTON  UNDER_RELAXATION
END options

BEGIN packages
  DIS6  rvt_ssma-4.2.dis  dis
  IC6  rvt_ssma-4.2.ic  ic
  NPF6  rvt_ssma-4.2.npf  npf
  GHB6  rvt_ssma-4.2.ghb  ghb_0
  RCH6  rvt_ssma-4.2.rch  rch_0
  EVT6  rvt_ssma-4.2.evt  evt
  STO6  rvt_ssma-4.2.sto  sto
  WEL6  rvt_ssma-4.2.wel  wel
  OBS6  rvt_ssma-4.2.obs  obs_0
  OC6  rvt_ssma-4.2.oc  oc
END packages

