# File generated by Flopy version 3.8.0 on 02/12/2025 at 20:41:13.
BEGIN options
END options

BEGIN timing
  TDIS6  rvt_ssma-2.1.tdis
END timing

BEGIN models
  gwf6  rvt_ssma-2.1.nam  rvt_ssma-2.1
END models

BEGIN exchanges
END exchanges

BEGIN solutiongroup  1
  ims6  rvt_ssma-2.1.ims  rvt_ssma-2.1
END solutiongroup  1

