# File generated by Flopy version 3.8.0 on 02/12/2025 at 20:41:13.
BEGIN options
  SAVE_FLOWS
  NEWTON  UNDER_RELAXATION
END options

BEGIN packages
  DIS6  rvt_ssma-2.1.dis  dis
  NPF6  rvt_ssma-2.1.npf  npf
  CHD6  rvt_ssma-2.1.chd  chd_0
  RCH6  rvt_ssma-2.1.rch  rch_0
  EVT6  rvt_ssma-2.1.evt  evt
  STO6  rvt_ssma-2.1.sto  sto
  WEL6  rvt_ssma-2.1.wel  wel
  OBS6  rvt_ssma-2.1.obs  obs_0
  OC6  rvt_ssma-2.1.oc  oc
  IC6  rvt_ssma-2.1.ic  ic
END packages

