# File generated by Flopy version 3.8.0 on 02/12/2025 at 20:42:06.
BEGIN options
  BUDGET  FILEOUT  rvt_ssma-2.1.cbb
  HEAD  FILEOUT  rvt_ssma-2.1.hds
END options

BEGIN period  1
  SAVE  HEAD  ALL
  SAVE  BUDGET  LAST
  PRINT  HEAD  LAST
END period  1

