# File generated by Flopy version 3.8.0 on 06/15/2025 at 09:52:16.
BEGIN options
END options

BEGIN timing
  TDIS6  rvt_ssma-4.2.tdis
END timing

BEGIN models
  gwf6  rvt_ssma-4.2.nam  rvt_ssma-4.2
END models

BEGIN exchanges
END exchanges

BEGIN solutiongroup  1
  ims6  rvt_ssma-4.2.ims  rvt_ssma-4.2
END solutiongroup  1

