# File generated by Flopy version 3.8.0 on 06/15/2025 at 09:53:28.
BEGIN options
END options

BEGIN continuous  FILEOUT  w1006-4.2.csv
  w1006  head  2 100 100
END continuous  FILEOUT  w1006-4.2.csv

