# File generated by Flopy version 3.8.0 on 06/15/2025 at 09:53:28.
BEGIN options
  BUDGET  FILEOUT  rvt_ssma-4.2.cbb
  HEAD  FILEOUT  rvt_ssma-4.2.hds
END options

BEGIN period  1
  SAVE  HEAD  ALL
  SAVE  BUDGET  LAST
  PRINT  HEAD  LAST
END period  1

