# File generated by Flopy version 3.8.0 on 06/15/2025 at 09:52:16.
BEGIN options
  TIME_UNITS  days
END options

BEGIN dimensions
  NPER  3
END dimensions

BEGIN perioddata
       1.00000000  1       1.20000000
       0.16100000  10       1.20000000
       0.00190000  10       1.20000000
END perioddata

