ptf ~
# File generated by Flopy version 3.8.0 on 01/29/2025 at 23:10:22.
BEGIN options
  SAVE_FLOWS
END options

BEGIN griddata
  icelltype
    CONSTANT  1
  k  LAYERED
    INTERNAL  FACTOR  ~  hk1  ~
         206.22063954     205.62066954     205.02069954     204.46228629     203.92434129     203.38639629     202.84743327     202.29865827     201.74988327     201.20110827     200.61774900     200.00220900     199.38666900     198.76450106     198.13345106     197.50240106     196.89552541     196.33628041     195.77703541     195.21779041     194.77174402     194.36131402     193.95088402     193.58700562     193.24605562     192.90510562     192.54168586     191.96169586     191.38170586     190.80171586     190.17635683     189.50878183     188.84120683     187.86464419     186.47400919     185.08337419     183.72540259     182.43178759     181.13817259     179.84455759     179.11507581     178.56309081     178.01110581     177.44075017     176.78928517     176.13782017     175.48391587     174.80650087     174.12908587     173.45167067     172.77419567     172.09672067     171.41924567     170.62708936     169.68124936     168.73540936     167.91312266     167.33427266     166.75542266     166.17657266     165.46025498     164.70068498     163.94111498     163.19115688     162.48363688     161.77611688     161.06008189     160.26197689     159.46387189     158.66631534     158.03274534     157.39917534     156.76560534     156.10985033     155.42436533     154.73888033     154.05339533     153.27104988     152.47178988     151.67252988     150.83363154     149.98226154     149.13089154     148.35964014     147.62785014     146.89606014     146.13483780     145.08993780     144.04503780     143.00013780     142.04073111     141.16087611     140.28102111     139.59503656     139.16885656     138.74267656     138.31649656     137.56396644     136.75444644     135.94492644     135.49114742     135.14929742     134.80744742     134.44616072     134.07530072     133.70444072     133.33721147     133.00497647     132.67274147     132.34050647     132.02792180     131.73362180     131.43932180     131.13862462     130.82935462     130.52008462     130.20901682     129.89440682     129.57979682     129.26518682     128.97513114     128.69280114     128.41047114     128.12350416     127.81606416     127.50862416     127.20346695     126.92031195     126.63715695     126.35419790     126.12982790     125.90545790     125.68108790     125.44564783     125.19537283     124.94509783     124.72702163     124.57238663     124.41775163     124.26311663     124.01843391     123.74541891     123.47240391     123.30167781     123.18133281     123.06098781     122.92992540     122.69556540     122.46120540     122.22684540     121.95758256     121.65584256     121.35410256     120.90913752     120.27223752     119.63533752     118.99843752     118.54054738     118.11391738     117.68728738     116.89765964     115.99381964     115.08997964     114.25479132     113.72271132     113.19063132     112.65718221     112.11053721     111.56389221     111.01597216     110.08681216     109.15765216     108.22849216     107.48827909     107.00127259     106.51426609     105.91726099     105.10352599     104.28979099     103.47605599     102.75328608     102.05913708     101.36498808     100.81621836     100.33905336      99.86188836      99.37900581      98.84101581      98.30302581      97.76503581      97.34251112      97.02742712      96.71234312      96.44720712      96.24900612      96.05080512      95.62510061      94.75114661      93.87719261      93.00323861
         207.03210954     206.43213954     205.87372629     205.33578129     204.79783629     204.25989129     203.72092827     203.17215327     202.62337827     202.07460327     201.52582827     200.94246900     200.32692900     199.70476106     199.07371106     198.46683541     197.90759041     197.34834541     196.78910041     196.22985541     195.78380902     195.37337902     195.00950062     194.66855062     194.32760062     193.98665062     193.62323086     193.04324086     192.46325086     191.88326086     191.30327086     190.67791183     190.01033683     189.03377419     187.64313919     186.28516759     184.99155259     183.69793759     182.40432259     181.11070759     180.38122581     179.82924081     179.27725581     178.72527081     178.15491517     177.50345017     176.84954587     176.17213087     175.49471567     174.81724067     174.13976567     173.46229067     172.78481567     171.99265936     171.04681936     170.22453266     169.64568266     169.06683266     168.48798266     167.90913266     167.19281498     166.43324498     165.67367498     164.91410498     164.16414688     163.45662688     162.74059189     161.94248689     161.14493034     160.51136034     159.87779034     159.24422034     158.61065034     157.95489533     157.26941033     156.58392533     155.89844033     155.21295533     154.43060988     153.63134988     152.79245154     151.94108154     151.16983014     150.43804014     149.70625014     148.97446014     148.21323780     147.16833780     146.12343780     145.07853780     144.03363780     143.07423111     142.19437611     141.50839156     141.08221156     140.65603156     140.22985156     139.80367156     139.05114144     138.24162144     137.78784242     137.44599242     137.08470572     136.71384572     136.34298572     135.97212572     135.60489647     135.27266147     134.94042647     134.60819147     134.27595647     133.96337180     133.66907180     133.36837462     133.05910462     132.74803682     132.43342682     132.11881682     131.80420682     131.48959682     131.19954114     130.91721114     130.63488114     130.35255114     130.06558416     129.75814416     129.45298695     129.16983195     128.88687290     128.66250290     128.43813290     128.21376290     127.98939290     127.75395283     127.50367783     127.28560163     127.13096663     126.97633163     126.82169663     126.66706163     126.42237891     126.14936391     125.97863781     125.85829281     125.73794781     125.61760281     125.48654040     125.25218040     125.01782040     124.78346040     124.54910040     124.27983756     123.97809756     123.53313252     122.89623252     122.25933252     121.62243252     120.98553252     120.52764238     120.10101238     119.31138464     118.40754464     117.50370464     116.59986464     115.76467632     115.23259632     114.69914721     114.15250221     113.60458216     112.67542216     111.74626216     110.81710216     109.88794216     109.14772909     108.66072259     108.06371749     107.24998249     106.43624749     105.62251249     104.80877749     104.08600758     103.39185858     102.84308886     102.36592386     101.88875886     101.41159386     100.92871131     100.39072131      99.85273131      99.31474131      98.77675131      98.35422662      98.03914262      97.77400662      97.57580562      97.15010111      96.27614711      95.40219311      94.52823911      93.65428511
         207.84357954     207.28516629     206.74722129     206.20927629     205.67133129     205.13338629     204.59442327     204.04564827     203.49687327     202.94809827     202.39932327     201.85054827     201.26718900     200.64502106     200.03814541     199.47890041     198.91965541     198.36041041     197.80116541     197.24192041     196.79587402     196.43199562     196.09104562     195.75009562     195.40914562     195.06819562     194.70477586     194.12478586     193.54479586     192.96480586     192.38481586     191.80482586     191.17946683     190.20290419     188.84493259     187.55131759     186.25770259     184.96408759     183.67047259     182.37685759     181.64737581     181.09539081     180.54340581     179.99142081     179.43943581     178.86908017     178.21517587     177.53776067     176.86028567     176.18281067     175.50533567     174.82786067     174.15038567     173.35822936     172.53594266     171.95709266     171.37824266     170.79939266     170.22054266     169.64169266     168.92537498     168.16580498     167.40623498     166.64666498     165.88709498     165.13713688     164.42110189     163.62354534     162.98997534     162.35640534     161.72283534     161.08926534     160.45569534     159.79994033     159.11445533     158.42897033     157.74348533     157.05800033     156.37251533     155.59016988     154.75127154     153.98002014     153.24823014     152.51644014     151.78465014     151.05286014     150.29163780     149.24673780     148.20183780     147.15693780     146.11203780     145.06713780     144.10773111     143.42174656     142.99556656     142.56938656     142.14320656     141.71702656     141.29084656     140.53831644     140.08453742     139.72325072     139.35239072     138.98153072     138.61067072     138.23981072     137.87258147     137.54034647     137.20811147     136.87587647     136.54364147     136.21140647     135.89882180     135.59812462     135.28705682     134.97244682     134.65783682     134.34322682     134.02861682     133.71400682     133.42395114     133.14162114     132.85929114     132.57696114     132.29463114     132.00766416     131.70250695     131.41954790     131.19517790     130.97080790     130.74643790     130.52206790     130.29769790     130.06225783     129.84418163     129.68954663     129.53491163     129.38027663     129.22564163     129.07100663     128.82632391     128.65559781     128.53525281     128.41490781     128.29456281     128.17421781     128.04315540     127.80879540     127.57443540     127.34007540     127.10571540     126.87135540     126.60209256     126.15712752     125.52022752     124.88332752     124.24642752     123.60952752     122.97262752     122.51473738     121.72510964     120.82126964     119.91742964     119.01358964     118.10974964     117.27456132     116.74111221     116.19319216     115.26403216     114.33487216     113.40571216     112.47655216     111.54739216     110.80717909     110.21017399     109.39643899     108.58270399     107.76896899     106.95523399     106.14149899     105.41872908     104.86995936     104.39279436     103.91562936     103.43846436     102.96129936     102.47841681     101.94042681     101.40243681     100.86444681     100.32645681      99.78846681      99.36594212      99.10080612      98.67510161      97.80114761      96.92719361      96.05323961      95.17928561      94.30533161
         208.69660629     208.15866129     207.62071629     207.08277129     206.54482629     206.00688129     205.46791827     204.91914327     204.37036827     203.82159327     203.27281827     202.72404327     202.17526827     201.60945541     201.05021041     200.49096541     199.93172041     199.37247541     198.81323041     198.25398541     197.85449062     197.51354062     197.17259062     196.83164062     196.49069062     196.14974062     195.78632086     195.20633086     194.62634086     194.04635086     193.46636086     192.88637086     192.30638086     191.40469759     190.11108259     188.81746759     187.52385259     186.23023759     184.93662259     183.64300759     182.91352581     182.36154081     181.80955581     181.25757081     180.70558581     180.15360081     179.58080567     178.90333067     178.22585567     177.54838067     176.87090567     176.19343067     175.51595567     174.84735266     174.26850266     173.68965266     173.11080266     172.53195266     171.95310266     171.37425266     170.65793498     169.89836498     169.13879498     168.37922498     167.61965498     166.86008498     166.10216034     165.46859034     164.83502034     164.20145034     163.56788034     162.93431034     162.30074034     161.64498533     160.95950033     160.27401533     159.58853033     158.90304533     158.21756033     157.53207533     156.79021014     156.05842014     155.32663014     154.59484014     153.86305014     153.13126014     152.37003780     151.32513780     150.28023780     149.23533780     148.19043780     147.14553780     146.10063780     145.33510156     144.90892156     144.48274156     144.05656156     143.63038156     143.20420156     142.77802156     142.36179572     141.99093572     141.62007572     141.24921572     140.87835572     140.50749572     140.14026647     139.80803147     139.47579647     139.14356147     138.81132647     138.47909147     138.14685647     137.82607682     137.51146682     137.19685682     136.88224682     136.56763682     136.25302682     135.93841682     135.64836114     135.36603114     135.08370114     134.80137114     134.51904114     134.23671114     133.95222290     133.72785290     133.50348290     133.27911290     133.05474290     132.83037290     132.60600290     132.40276163     132.24812663     132.09349163     131.93885663     131.78422163     131.62958663     131.47495163     131.33255781     131.21221281     131.09186781     130.97152281     130.85117781     130.73083281     130.59977040     130.36541040     130.13105040     129.89669040     129.66233040     129.42797040     129.19361040     128.78112252     128.14422252     127.50732252     126.87042252     126.23352252     125.59662252     124.95972252     124.13883464     123.23499464     122.33115464     121.42731464     120.52347464     119.61963464     118.78180216     117.85264216     116.92348216     115.99432216     115.06516216     114.13600216     113.20684216     112.35663049     111.54289549     110.72916049     109.91542549     109.10169049     108.28795549     107.47422049     106.89682986     106.41966486     105.94249986     105.46533486     104.98816986     104.51100486     104.02812231     103.49013231     102.95214231     102.41415231     101.87616231     101.33817231     100.80018231     100.20010211      99.32614811      98.45219411      97.57824011      96.70428611      95.83033211      94.95637811
         209.55988908     209.03210173     208.49415673     207.95621173     207.41826673     206.88032173     206.34135871     205.79258371     205.24380871     204.69503371     204.14625871     203.59748371     203.07338301     202.59614167     202.07528797     201.51604297     200.95679797     200.39755297     199.83830797     199.27906297     198.51333120     198.09957170     197.75862170     197.41767170     197.07672170     196.73577170     196.37235194     195.79236194     195.21237194     194.63238194     194.05239194     193.47240194     192.93943249     192.40891238     191.42484983     190.13123483     188.83761983     187.54400483     186.25038983     184.95677483     184.25513345     183.70858965     183.15660465     182.60461965     182.05263465     181.50064965     180.96022806     180.48536747     179.80789247     179.13041747     178.45294247     177.77546747     177.09799247     176.46266322     175.88381322     175.30496322     174.72611322     174.14726322     173.56841322     172.97123202     172.24836618     171.48879618     170.72922618     169.96965618     169.21008618     168.45157373     168.00597497     167.49978042     166.86621042     166.23264042     165.59907042     164.96550042     164.33193042     163.67617541     162.99069041     162.30520541     161.61972041     160.93423541     160.24875041     159.67134311     159.10846539     158.39997666     157.66818666     156.93639666     156.20460666     155.47281666     154.71159432     153.66669432     152.62179432     151.57689432     150.53199432     149.48709432     148.47519102     147.75081776     147.32463776     146.89845776     146.47227776     146.04609776     145.61991776     145.24198781     144.87512348     144.50426348     144.13340348     143.76254348     143.39168348     143.02076503     142.63182577     142.24908087     141.91684587     141.58461087     141.25237587     140.92014087     140.58790587     140.23849848     139.89602406     139.58141406     139.26680406     138.95219406     138.63758406     138.32297406     138.00909430     137.72210806     137.43977806     137.15744806     136.87511806     136.59278806     136.31590630     136.09153630     135.86716630     135.64279630     135.41842630     135.19405630     134.97311525     134.81569721     134.69638799     134.54175299     134.38711799     134.23248299     134.07784799     133.92321299     133.79466125     133.67431625     133.55397125     133.43362625     133.31328125     133.19352530     133.24884626     133.24242900     133.00806900     132.77370900     132.53934900     132.30498900     132.07062900     131.66425024     131.02735024     130.39045024     129.75355024     129.11665024     128.47975024     127.73587804     126.85771372     125.95387372     125.05003372     124.14619372     123.24235372     122.33629182     120.78407223     119.48985896     118.56069896     117.63153896     116.70237896     115.77321896     114.84405896     113.96422391     113.15048891     112.33675391     111.52301891     110.70928391     109.89554891     109.00846901     108.42455177     107.94738677     107.47022177     106.99305677     106.51589177     106.03731807     105.17155086     104.63356086     104.09557086     103.55758086     103.01959086     102.48160086     101.87660746     101.19314019     100.44558539      99.57163139      98.69767739      97.82372339      96.94976939      96.07581539
         210.36499908     209.89537908     209.36759173     208.82964673     208.29170173     207.75375673     207.21479371     206.66601871     206.11724371     205.56846871     205.01969371     204.49559301     204.02010801     203.54286667     203.06327167     202.54241797     201.98317297     201.42392797     200.86468297     200.30543797     199.53970620     198.70900620     198.29524670     197.95429670     197.61334670     197.27239670     196.90897694     196.32898694     195.74899694     195.16900694     194.58901694     194.05604749     193.61572249     193.08520238     192.43381238     191.44974983     190.15613483     188.86251983     187.56890483     186.27528983     185.57364845     185.05826345     184.51171965     183.95973465     183.40774965     182.85576465     182.31534306     181.88637306     181.41151247     180.73403747     180.05656247     179.37908747     178.70161247     178.06628322     177.48743322     176.90858322     176.32973322     175.75088322     175.15370202     174.54749202     173.82462618     173.06505618     172.30548618     171.54591618     170.78740373     170.34509873     169.89949997     169.42215497     168.91596042     168.28239042     167.64882042     167.01525042     166.38168042     165.72592541     165.04044041     164.35495541     163.66947041     162.98398541     162.40657811     161.88240311     161.31952539     160.74447039     160.03598166     159.30419166     158.57240166     157.84061166     157.07938932     156.03448932     154.98958932     153.94468932     152.89978932     151.88788602     150.94099602     150.21662276     149.79044276     149.36426276     148.93808276     148.51190276     148.13397281     147.77980781     147.41294348     147.04208348     146.67122348     146.30036348     145.92944503     145.54105003     145.15211077     144.75792577     144.37518087     144.04294587     143.71071087     143.37847587     143.04624087     142.69683348     142.32441348     141.98193906     141.66732906     141.35271906     141.03810906     140.72349906     140.40961930     140.09596930     139.80898306     139.52665306     139.24432306     138.96199306     138.68511130     138.46074130     138.23637130     138.01200130     137.78763130     137.56669025     137.35250525     137.19508721     137.11374221     136.99443299     136.83979799     136.68516299     136.53052799     136.37589299     136.24734125     136.12699625     136.00665125     135.88630625     135.76655030     135.82292030     135.87824126     135.92345126     135.91703400     135.68267400     135.44831400     135.21395400     134.97959400     134.57321524     133.93631524     133.29941524     132.66251524     132.02561524     131.28174304     130.48518304     129.60701872     128.70317872     127.79933872     126.89549872     125.98943682     124.41902682     122.86680723     121.48991223     120.19569896     119.26653896     118.33737896     117.40821896     116.47905896     115.59922391     114.78548891     113.97175391     113.15801891     112.34428391     111.45720401     110.53399901     109.95008177     109.47291677     108.99575177     108.51858677     108.04001307     107.14023807     106.27447086     105.73648086     105.19849086     104.66050086     104.12251086     103.51751746     102.78050746     102.09704019     101.48532519     100.73777039      99.86381639      98.98986239      98.11590839      97.24195439
         211.17010908     210.70048908     210.23086908     209.70308173     209.16513673     208.62719173     208.08822871     207.53945371     206.99067871     206.44190371     205.91780301     205.44231801     204.96683301     204.48959167     204.00999667     203.53040167     203.00954797     202.45030297     201.89105797     201.33181297     200.56608120     199.73538120     198.90468120     198.49092170     198.14997170     197.80902170     197.44560194     196.86561194     196.28562194     195.70563194     195.17266249     194.73233749     194.29201249     193.76149238     193.11010238     192.45871238     191.47464983     190.18103483     188.88741983     187.59380483     186.89216345     186.37677845     185.86139345     185.31484965     184.76286465     184.21087965     183.67045806     183.24148806     182.81251806     182.33765747     181.66018247     180.98270747     180.30523247     179.66990322     179.09105322     178.51220322     177.93335322     177.33617202     176.72996202     176.12375202     175.40088618     174.64131618     173.88174618     173.12323373     172.68092873     172.23862373     171.79302497     171.31567997     170.83833497     170.33214042     169.69857042     169.06500042     168.43143042     167.77567541     167.09019041     166.40470541     165.71922041     165.14181311     164.61763811     164.09346311     163.53058539     162.95553039     162.38047539     161.67198666     160.94019666     160.20840666     159.44718432     158.40228432     157.35738432     156.31248432     155.30058102     154.35369102     153.40680102     152.68242776     152.25624776     151.83006776     151.40388776     151.02595781     150.67179281     150.31762781     149.95076348     149.57990348     149.20904348     148.83812503     148.44973003     148.06133503     147.67239577     147.27821077     146.88402577     146.50128087     146.16904587     145.83681087     145.50457587     145.15516848     144.78274848     144.41032848     144.06785406     143.75324406     143.43863406     143.12402406     142.81014430     142.49649430     142.18284430     141.89585806     141.61352806     141.33119806     141.05431630     140.82994630     140.60557630     140.38120630     140.16026525     139.94608025     139.73189525     139.57447721     139.49313221     139.41178721     139.29247799     139.13784299     138.98320799     138.82857299     138.70002125     138.57967625     138.45933125     138.33957530     138.39594530     138.45231530     138.50763626     138.55284626     138.59805626     138.59163900     138.35727900     138.12291900     137.88855900     137.48218024     136.84528024     136.20838024     135.57148024     134.82760804     134.03104804     133.23448804     132.35632372     131.45248372     130.54864372     129.64258182     128.07217182     126.50176182     124.94954223     123.57264723     122.19575223     120.90153896     119.97237896     119.04321896     118.11405896     117.23422391     116.42048891     115.60675391     114.79301891     113.90593901     112.98273401     112.05952901     111.47561177     110.99844677     110.52128177     110.04270807     109.14293307     108.24315807     107.37739086     106.83940086     106.30141086     105.76342086     105.15842746     104.42141746     103.68440746     103.00094019     102.38922519     101.77751019     101.02995539     100.15600139      99.28204739      98.40809339
         211.97521908     211.50559908     211.03597908     210.56635908     210.03857173     209.50062673     208.96166371     208.41288871     207.86411371     207.34001301     206.86452801     206.38904301     205.91355801     205.43631667     204.95672167     204.47712667     203.99753167     203.47667797     202.91743297     202.35818797     201.59245620     200.76175620     199.93105620     199.10035620     198.68659670     198.34564670     197.98222694     197.40223694     196.82224694     196.28927749     195.84895249     195.40862749     194.96830249     194.43778238     193.78639238     193.13500238     192.48361238     191.49954983     190.20593483     188.91231983     188.21067845     187.69529345     187.17990845     186.66452345     186.11797965     185.56599465     185.02557306     184.59660306     184.16763306     183.73866306     183.26380247     182.58632747     181.90885247     181.27352322     180.69467322     180.11582322     179.51864202     178.91243202     178.30622202     177.70001202     176.97714618     176.21757618     175.45906373     175.01675873     174.57445373     174.13214873     173.68654997     173.20920497     172.73185997     172.25451497     171.74832042     171.11475042     170.48118042     169.82542541     169.13994041     168.45445541     167.87704811     167.35287311     166.82869811     166.30452311     165.74164539     165.16659039     164.59153539     164.01648039     163.30799166     162.57620166     161.81497932     160.77007932     159.72517932     158.71327602     157.76638602     156.81949602     155.87260602     155.14823276     154.72205276     154.29587276     153.91794281     153.56377781     153.20961281     152.85544781     152.48858348     152.11772348     151.74680503     151.35841003     150.97001503     150.58162003     150.19268077     149.79849577     149.40431077     149.01012577     148.62738087     148.29514587     147.96291087     147.61350348     147.24108348     146.86866348     146.49624348     146.15376906     145.83915906     145.52454906     145.21066930     144.89701930     144.58336930     144.26971930     143.98273306     143.70040306     143.42352130     143.19915130     142.97478130     142.75384025     142.53965525     142.32547025     142.11128525     141.95386721     141.87252221     141.79117721     141.70983221     141.59052299     141.43588799     141.28125299     141.15270125     141.03235625     140.91260030     140.96897030     141.02534030     141.08171030     141.13703126     141.18224126     141.22745126     141.27266126     141.26624400     141.03188400     140.79752400     140.39114524     139.75424524     139.11734524     138.37347304     137.57691304     136.78035304     135.98379304     135.10562872     134.20178872     133.29572682     131.72531682     130.15490682     128.58449682     127.03227723     125.65538223     124.27848723     122.90159223     121.60737896     120.67821896     119.74905896     118.86922391     118.05548891     117.24175391     116.35467401     115.43146901     114.50826401     113.58505901     113.00114177     112.52397677     112.04540307     111.14562807     110.24585307     109.34607807     108.48031086     107.94232086     107.40433086     106.79933746     106.06232746     105.32531746     104.58830746     103.90484019     103.29312519     102.68141019     102.06969519     101.32214039     100.44818639      99.57423239