# File generated by Flopy version 3.8.0 on 02/12/2025 at 19:08:11.
BEGIN options
  SAVE_FLOWS
  NEWTON  UNDER_RELAXATION
END options

BEGIN packages
  DIS6  rvt_ssma-4.dis  dis
  IC6  rvt_ssma-4.ic  ic
  NPF6  rvt_ssma-4.npf  npf
  CHD6  rvt_ssma-4.chd  chd_0
  RCH6  rvt_ssma-4.rch  rch_0
  EVT6  rvt_ssma-4.evt  evt
  STO6  rvt_ssma-4.sto  sto
  WEL6  rvt_ssma-4.wel  wel
  OBS6  rvt_ssma-4.obs  obs_0
  OC6  rvt_ssma-4.oc  oc
END packages

