# File generated by Flopy version 3.8.0 on 02/12/2025 at 19:08:11.
BEGIN options
END options

BEGIN griddata
  strt  LAYERED
    CONSTANT    4924.00000000
    CONSTANT    4923.00000000
END griddata

