# File generated by Flopy version 3.8.0 on 02/12/2025 at 20:41:13.
BEGIN options
  LENGTH_UNITS  feet
  XORIGIN  5.93583491E+05
  YORIGIN  8.46116344E+05
END options

BEGIN dimensions
  NLAY  1
  NROW  200
  NCOL  200
END dimensions

BEGIN griddata
  delr
    INTERNAL  FACTOR  1.0
         1.50000000       1.50000000       1.50000000       1.50000000       1.50000000       1.50000000       1.50000000       1.50000000       1.50000000       1.50000000       1.50000000       1.50000000       1.50000000       1.50000000       1.50000000       1.50000000       1.50000000       1.50000000       1.50000000       1.50000000       1.50000000       1.50000000       1.50000000       1.50000000       1.50000000       1.50000000       1.50000000       1.50000000       1.50000000       1.50000000       1.50000000       1.50000000       1.50000000       1.50000000       1.50000000       1.50000000       1.50000000       1.50000000       1.50000000       1.50000000       1.50000000       1.50000000       1.50000000       1.50000000       1.50000000       1.50000000       1.50000000       1.50000000       1.50000000       1.50000000       1.50000000       1.50000000       1.50000000       1.50000000       1.50000000       1.50000000       1.50000000       1.50000000       1.50000000       1.50000000       1.50000000       1.50000000       1.50000000       1.50000000       1.50000000       1.50000000       1.50000000       1.50000000       1.50000000       1.50000000       1.50000000       1.50000000       1.50000000       1.50000000       1.50000000       1.50000000       1.50000000       1.50000000       1.50000000       1.50000000       1.50000000       1.50000000       1.50000000       1.50000000       1.50000000       1.50000000       1.50000000       1.50000000       1.50000000       1.50000000       1.50000000       1.50000000       1.50000000       1.50000000       1.50000000       1.50000000       1.50000000       1.50000000       1.50000000       1.50000000       1.50000000       1.50000000       1.50000000       1.50000000       1.50000000       1.50000000       1.50000000       1.50000000       1.50000000       1.50000000       1.50000000       1.50000000       1.50000000       1.50000000       1.50000000       1.50000000       1.50000000       1.50000000       1.50000000       1.50000000       1.50000000       1.50000000       1.50000000       1.50000000       1.50000000       1.50000000       1.50000000       1.50000000       1.50000000       1.50000000       1.50000000       1.50000000       1.50000000       1.50000000       1.50000000       1.50000000       1.50000000       1.50000000       1.50000000       1.50000000       1.50000000       1.50000000       1.50000000       1.50000000       1.50000000       1.50000000       1.50000000       1.50000000       1.50000000       1.50000000       1.50000000       1.50000000       1.50000000       1.50000000       1.50000000       1.50000000       1.50000000       1.50000000       1.50000000       1.50000000       1.50000000       1.50000000       1.50000000       1.50000000       1.50000000       1.50000000       1.50000000       1.50000000       1.50000000       1.50000000       1.50000000       1.50000000       1.50000000       1.50000000       1.50000000       1.50000000       1.50000000       1.50000000       1.50000000       1.50000000       1.50000000       1.50000000       1.50000000       1.50000000       1.50000000       1.50000000       1.50000000       1.50000000       1.50000000       1.50000000       1.50000000       1.50000000       1.50000000       1.50000000       1.50000000       1.50000000       1.50000000       1.50000000       1.50000000       1.50000000
  delc
    INTERNAL  FACTOR  1.0
         1.50000000       1.50000000       1.50000000       1.50000000       1.50000000       1.50000000       1.50000000       1.50000000       1.50000000       1.50000000       1.50000000       1.50000000       1.50000000       1.50000000       1.50000000       1.50000000       1.50000000       1.50000000       1.50000000       1.50000000       1.50000000       1.50000000       1.50000000       1.50000000       1.50000000       1.50000000       1.50000000       1.50000000       1.50000000       1.50000000       1.50000000       1.50000000       1.50000000       1.50000000       1.50000000       1.50000000       1.50000000       1.50000000       1.50000000       1.50000000       1.50000000       1.50000000       1.50000000       1.50000000       1.50000000       1.50000000       1.50000000       1.50000000       1.50000000       1.50000000       1.50000000       1.50000000       1.50000000       1.50000000       1.50000000       1.50000000       1.50000000       1.50000000       1.50000000       1.50000000       1.50000000       1.50000000       1.50000000       1.50000000       1.50000000       1.50000000       1.50000000       1.50000000       1.50000000       1.50000000       1.50000000       1.50000000       1.50000000       1.50000000       1.50000000       1.50000000       1.50000000       1.50000000       1.50000000       1.50000000       1.50000000       1.50000000       1.50000000       1.50000000       1.50000000       1.50000000       1.50000000       1.50000000       1.50000000       1.50000000       1.50000000       1.50000000       1.50000000       1.50000000       1.50000000       1.50000000       1.50000000       1.50000000       1.50000000       1.50000000       1.50000000       1.50000000       1.50000000       1.50000000       1.50000000       1.50000000       1.50000000       1.50000000       1.50000000       1.50000000       1.50000000       1.50000000       1.50000000       1.50000000       1.50000000       1.50000000       1.50000000       1.50000000       1.50000000       1.50000000       1.50000000       1.50000000       1.50000000       1.50000000       1.50000000       1.50000000       1.50000000       1.50000000       1.50000000       1.50000000       1.50000000       1.50000000       1.50000000       1.50000000       1.50000000       1.50000000       1.50000000       1.50000000       1.50000000       1.50000000       1.50000000       1.50000000       1.50000000       1.50000000       1.50000000       1.50000000       1.50000000       1.50000000       1.50000000       1.50000000       1.50000000       1.50000000       1.50000000       1.50000000       1.50000000       1.50000000       1.50000000       1.50000000       1.50000000       1.50000000       1.50000000       1.50000000       1.50000000       1.50000000       1.50000000       1.50000000       1.50000000       1.50000000       1.50000000       1.50000000       1.50000000       1.50000000       1.50000000       1.50000000       1.50000000       1.50000000       1.50000000       1.50000000       1.50000000       1.50000000       1.50000000       1.50000000       1.50000000       1.50000000       1.50000000       1.50000000       1.50000000       1.50000000       1.50000000       1.50000000       1.50000000       1.50000000       1.50000000       1.50000000       1.50000000       1.50000000       1.50000000       1.50000000       1.50000000       1.50000000
  top
    INTERNAL  FACTOR  1.0
      4935.01610078    4934.99803643    4934.97997208    4934.97869997    4934.98569867    4934.99269737    4934.99553268    4934.95823998    4934.92094728    4934.88365458    4934.86323879    4934.85852699    4934.85381519    4934.87388989    4934.92718084    4934.98047179    4935.02641060    4935.05786350    4935.08931640    4935.12076930    4935.09776410    4935.05762440    4935.01748470    4935.01010408    4935.01885853    4935.02761298    4935.03261805    4935.00148555    4934.97035305    4934.93922055    4934.91639846    4934.90130921    4934.88621996    4934.87484088    4934.86843378    4934.86202668    4934.85964973    4934.86521338    4934.87077703    4934.87634068    4934.88057187    4934.88438382    4934.88819577    4934.89169203    4934.89379443    4934.89589683    4934.89962167    4934.91898412    4934.93834657    4934.95764878    4934.95893908    4934.96022938    4934.96151968    4934.93600195    4934.87455895    4934.81311595    4934.75075112    4934.68657002    4934.62238892    4934.55820782    4934.52959067    4934.51216322    4934.49473577    4934.48007017    4934.47759862    4934.47512707    4934.47762627    4934.52803497    4934.57844367    4934.62880335    4934.66450830    4934.70021325    4934.73591820    4934.75071764    4934.73750174    4934.72428584    4934.71106994    4934.70544121    4934.70113741    4934.69683361    4934.66436833    4934.62304243    4934.58171653    4934.54434129    4934.50891189    4934.47348249    4934.44378188    4934.46929703    4934.49481218    4934.52032733    4934.52769261    4934.51816941    4934.50864621    4934.50039245    4934.49383985    4934.48728725    4934.48073465    4934.49110357    4934.50442747    4934.51775137    4934.52836471    4934.53812521    4934.54788571    4934.56410947    4934.58351662    4934.60292377    4934.61777974    4934.58877004    4934.55976034    4934.53075064    4934.49562299    4934.45480259    4934.41398219    4934.40985283    4934.45489288    4934.49993293    4934.54129062    4934.57539297    4934.60949532    4934.64359767    4934.64620385    4934.63890020    4934.63159655    4934.62847834    4934.64383954    4934.65920074    4934.67052829    4934.64297824    4934.61542819    4934.58794001    4934.57895051    4934.56996101    4934.56097151    4934.55978971    4934.56907096    4934.57835221    4934.58502129    4934.58654364    4934.58806599    4934.58958834    4934.61474856    4934.64734611    4934.67994366    4934.70007368    4934.71406298    4934.72805228    4934.73873470    4934.71754435    4934.69635400    4934.67516365    4934.64030804    4934.59273689    4934.54516574    4934.52747391    4934.54982316    4934.57217241    4934.59452166    4934.54770668    4934.48881368    4934.42992068    4934.43683770    4934.46446095    4934.49208420    4934.52558559    4934.58503989    4934.64449419    4934.70031153    4934.72107483    4934.74183813    4934.76244224    4934.73544749    4934.70845274    4934.68145799    4934.64881398    4934.60859943    4934.56838488    4934.53848218    4934.52889688    4934.51931158    4934.50972628    4934.50136287    4934.49338392    4934.48540497    4934.48861891    4934.49734576    4934.50607261    4934.51443495    4934.51928400    4934.52413305    4934.52898210    4934.54361894    4934.56736334    4934.59110774    4934.61351937    4934.63414497    4934.65477057    4934.67026921    4934.67566621    4934.68106321    4934.68646021
      4935.02461133    4935.00654698    4935.00527487    4935.01227357    4935.01927227    4935.02627097    4935.02910628    4934.99181358    4934.95452088    4934.91722818    4934.87993548    4934.85951969    4934.85480789    4934.87488259    4934.92817354    4934.97411235    4935.00556525    4935.03701815    4935.06847105    4935.09992395    4935.07691875    4935.03677905    4935.02939843    4935.03815288    4935.04690733    4935.05566178    4935.06066685    4935.02953435    4934.99840185    4934.96726935    4934.93613685    4934.91331476    4934.89822551    4934.88684643    4934.88043933    4934.87806238    4934.88362603    4934.88918968    4934.89475333    4934.90031698    4934.90454817    4934.90836012    4934.91217207    4934.91598402    4934.91948028    4934.92158268    4934.92530752    4934.94466997    4934.96397218    4934.96526248    4934.96655278    4934.96784308    4934.96913338    4934.94361565    4934.88217265    4934.81980782    4934.75562672    4934.69144562    4934.62726452    4934.56308342    4934.53446627    4934.51703882    4934.49961137    4934.48218392    4934.46751832    4934.46504677    4934.46754597    4934.51795467    4934.56831435    4934.60401930    4934.63972425    4934.67542920    4934.71113415    4934.72593359    4934.71271769    4934.69950179    4934.68628589    4934.67306999    4934.66744126    4934.66313746    4934.63067218    4934.58934628    4934.55197104    4934.51654164    4934.48111224    4934.44568284    4934.41598223    4934.44149738    4934.46701253    4934.49252768    4934.51804283    4934.52540811    4934.51588491    4934.50763115    4934.50107855    4934.49452595    4934.48797335    4934.48142075    4934.49178967    4934.50511357    4934.51572691    4934.52548741    4934.54171117    4934.56111832    4934.58052547    4934.59993262    4934.61478859    4934.58577889    4934.55676919    4934.52775949    4934.49874979    4934.46362214    4934.42280174    4934.41867238    4934.46371243    4934.50507012    4934.53917247    4934.57327482    4934.60737717    4934.64147952    4934.64408570    4934.63678205    4934.62947840    4934.62217475    4934.61905654    4934.63441774    4934.64574529    4934.61819524    4934.59070706    4934.58171756    4934.57272806    4934.56373856    4934.55474906    4934.55356726    4934.56284851    4934.56951759    4934.57103994    4934.57256229    4934.57408464    4934.57560699    4934.60076721    4934.63336476    4934.65349478    4934.66748408    4934.68147338    4934.69546268    4934.70614510    4934.68495475    4934.66376440    4934.64257405    4934.62138370    4934.58652809    4934.53895694    4934.52126511    4934.54361436    4934.56596361    4934.58831286    4934.61066211    4934.56384713    4934.50495413    4934.51187115    4934.53949440    4934.56711765    4934.59474090    4934.62824229    4934.68769659    4934.74351393    4934.76427723    4934.78488134    4934.75788659    4934.73089184    4934.70389709    4934.67690234    4934.64425833    4934.60404378    4934.57414108    4934.56455578    4934.55497048    4934.54538518    4934.53579988    4934.52743647    4934.51945752    4934.52267146    4934.53139831    4934.54012516    4934.54885201    4934.55721435    4934.56206340    4934.56691245    4934.57176150    4934.57661055    4934.59124739    4934.61499179    4934.63740342    4934.65802902    4934.67352766    4934.67892466    4934.68432166    4934.68971866    4934.69511566
      4935.03312188    4935.03184977    4935.03884847    4935.04584717    4935.05284587    4935.05984457    4935.06267988    4935.02538718    4934.98809448    4934.95080178    4934.91350908    4934.87621638    4934.85580059    4934.87587529    4934.92181410    4934.95326700    4934.98471990    4935.01617280    4935.04762570    4935.07907860    4935.05607340    4935.04869278    4935.05744723    4935.06620168    4935.07495613    4935.08371058    4935.08871565    4935.05758315    4935.02645065    4934.99531815    4934.96418565    4934.93305315    4934.91023106    4934.89885198    4934.89647503    4934.90203868    4934.90760233    4934.91316598    4934.91872963    4934.92429328    4934.92852447    4934.93233642    4934.93614837    4934.93996032    4934.94377227    4934.94726853    4934.95099337    4934.97029558    4934.97158588    4934.97287618    4934.97416648    4934.97545678    4934.97674708    4934.95122935    4934.88886452    4934.82468342    4934.76050232    4934.69632122    4934.63214012    4934.56795902    4934.53934187    4934.52191442    4934.50448697    4934.48705952    4934.46963207    4934.45496647    4934.45746567    4934.50782535    4934.54353030    4934.57923525    4934.61494020    4934.65064515    4934.68635010    4934.70114954    4934.68793364    4934.67471774    4934.66150184    4934.64828594    4934.63507004    4934.62944131    4934.59697603    4934.55960079    4934.52417139    4934.48874199    4934.45331259    4934.41788319    4934.38818258    4934.41369773    4934.43921288    4934.46472803    4934.49024318    4934.51575833    4934.52312361    4934.51486985    4934.50831725    4934.50176465    4934.49521205    4934.48865945    4934.48210685    4934.49247577    4934.50308911    4934.51931287    4934.53872002    4934.55812717    4934.57753432    4934.59694147    4934.61179744    4934.58278774    4934.55377804    4934.52476834    4934.49575864    4934.46674894    4934.43162129    4934.42749193    4934.46884962    4934.50295197    4934.53705432    4934.57115667    4934.60525902    4934.63936137    4934.64196755    4934.63466390    4934.62736025    4934.62005660    4934.61275295    4934.60963474    4934.62096229    4934.59347411    4934.58448461    4934.57549511    4934.56650561    4934.55751611    4934.54852661    4934.54734481    4934.55401389    4934.55553624    4934.55705859    4934.55858094    4934.56010329    4934.56162564    4934.58678586    4934.60691588    4934.62090518    4934.63489448    4934.64888378    4934.66287308    4934.67355550    4934.65236515    4934.63117480    4934.60998445    4934.58879410    4934.56760375    4934.53274814    4934.51505631    4934.53740556    4934.55975481    4934.58210406    4934.60445331    4934.62680256    4934.57998758    4934.58690460    4934.61452785    4934.64215110    4934.66977435    4934.69739760    4934.73089899    4934.78671633    4934.80732044    4934.78032569    4934.75333094    4934.72633619    4934.69934144    4934.67234669    4934.63970268    4934.60979998    4934.60021468    4934.59062938    4934.58104408    4934.57145878    4934.56187348    4934.55351007    4934.55672401    4934.56545086    4934.57417771    4934.58290456    4934.59163141    4934.59999375    4934.60484280    4934.60969185    4934.61454090    4934.61938995    4934.62423900    4934.63887584    4934.66128747    4934.67678611    4934.68218311    4934.68758011    4934.69297711    4934.69837411    4934.70377111
      4935.05842467    4935.06542337    4935.07242207    4935.07942077    4935.08641947    4935.09341817    4935.09625348    4935.05896078    4935.02166808    4934.98437538    4934.94708268    4934.90978998    4934.87249728    4934.86951585    4934.90096875    4934.93242165    4934.96387455    4934.99532745    4935.02678035    4935.05823325    4935.06798713    4935.07674158    4935.08549603    4935.09425048    4935.10300493    4935.11175938    4935.11676445    4935.08563195    4935.05449945    4935.02336695    4934.99223445    4934.96110195    4934.92996945    4934.91488768    4934.92045133    4934.92601498    4934.93157863    4934.93714228    4934.94270593    4934.94826958    4934.95250077    4934.95631272    4934.96012467    4934.96393662    4934.96774857    4934.97156052    4934.97661898    4934.97790928    4934.97919958    4934.98048988    4934.98178018    4934.98307048    4934.98436078    4934.95792122    4934.89374012    4934.82955902    4934.76537792    4934.70119682    4934.63701572    4934.57283462    4934.54421747    4934.52679002    4934.50936257    4934.49193512    4934.47450767    4934.45708022    4934.44733635    4934.48304130    4934.51874625    4934.55445120    4934.59015615    4934.62586110    4934.66156605    4934.67636549    4934.66314959    4934.64993369    4934.63671779    4934.62350189    4934.61028599    4934.59707009    4934.56723054    4934.53180114    4934.49637174    4934.46094234    4934.42551294    4934.39008354    4934.36038293    4934.38589808    4934.41141323    4934.43692838    4934.46244353    4934.48795868    4934.51347383    4934.52210855    4934.51555595    4934.50900335    4934.50245075    4934.49589815    4934.48934555    4934.48279295    4934.49691457    4934.51632172    4934.53572887    4934.55513602    4934.57454317    4934.59395032    4934.60880629    4934.57979659    4934.55078689    4934.52177719    4934.49276749    4934.46375779    4934.43474809    4934.43262912    4934.46673147    4934.50083382    4934.53493617    4934.56903852    4934.60314087    4934.63724322    4934.63984940    4934.63254575    4934.62524210    4934.61793845    4934.61063480    4934.60333115    4934.59624116    4934.58725166    4934.57826216    4934.56927266    4934.56028316    4934.55129366    4934.54230416    4934.53851019    4934.54003254    4934.54155489    4934.54307724    4934.54459959    4934.54612194    4934.54764429    4934.56033698    4934.57432628    4934.58831558    4934.60230488    4934.61629418    4934.63028348    4934.64096590    4934.61977555    4934.59858520    4934.57739485    4934.55620450    4934.53501415    4934.51382380    4934.50884751    4934.53119676    4934.55354601    4934.57589526    4934.59824451    4934.62059376    4934.64294301    4934.66193805    4934.68956130    4934.71718455    4934.74480780    4934.77243105    4934.80005430    4934.82975954    4934.80276479    4934.77577004    4934.74877529    4934.72178054    4934.69478579    4934.66779104    4934.64545888    4934.63587358    4934.62628828    4934.61670298    4934.60711768    4934.59753238    4934.58794708    4934.59077656    4934.59950341    4934.60823026    4934.61695711    4934.62568396    4934.63441081    4934.64277315    4934.64762220    4934.65247125    4934.65732030    4934.66216935    4934.66701840    4934.67186745    4934.68004456    4934.68544156    4934.69083856    4934.69623556    4934.70163256    4934.70702956    4934.71242656
      4935.05660105    4935.05963916    4935.06663786    4935.07363656    4935.08063526    4935.08763396    4935.09046927    4935.05317657    4935.01588387    4934.97859117    4934.94129847    4934.90400577    4934.87458223    4934.86391982    4934.87717662    4934.90862952    4934.94008242    4934.97153532    4935.00298822    4935.03444112    4935.02818613    4935.03294536    4935.04169981    4935.05045426    4935.05920871    4935.06796316    4935.07296824    4935.04183574    4935.01070324    4934.97957074    4934.94843824    4934.91730574    4934.89805962    4934.91259089    4934.92916720    4934.93473085    4934.94029450    4934.94585815    4934.95142180    4934.95698545    4934.94664744    4934.94761195    4934.95142390    4934.95523585    4934.95904780    4934.96285975    4934.96501106    4934.95395334    4934.95524364    4934.95653394    4934.95782424    4934.95911454    4934.96040484    4934.93371702    4934.86953592    4934.80535482    4934.74117372    4934.67699262    4934.61281152    4934.59022024    4934.57645954    4934.55903209    4934.54160464    4934.52417719    4934.50674974    4934.48926619    4934.45755127    4934.45828221    4934.49398716    4934.52969211    4934.56539706    4934.60110201    4934.63680696    4934.65160640    4934.63839050    4934.62517460    4934.61195870    4934.59874280    4934.58552690    4934.58008960    4934.57327215    4934.54185262    4934.50642322    4934.47099382    4934.43556442    4934.40013502    4934.37043441    4934.39594956    4934.42146471    4934.44697986    4934.47249501    4934.49801016    4934.51281017    4934.50639536    4934.49984276    4934.49329016    4934.48673756    4934.48018496    4934.47363236    4934.48540985    4934.50515173    4934.52455888    4934.54396603    4934.56337318    4934.58278033    4934.60216528    4934.60925298    4934.56519439    4934.53618469    4934.50717499    4934.47816529    4934.44915559    4934.42014589    4934.40933341    4934.43354085    4934.46764320    4934.50174555    4934.53584790    4934.56995025    4934.60405260    4934.61388200    4934.60799008    4934.60068643    4934.59338278    4934.58607913    4934.57877548    4934.57131336    4934.56232386    4934.55333436    4934.54434486    4934.53535536    4934.52636586    4934.52464785    4934.53547179    4934.54032450    4934.54184685    4934.54336920    4934.54489155    4934.54641390    4934.54793625    4934.55894179    4934.57293109    4934.58692039    4934.60090969    4934.61489899    4934.62882011    4934.62157798    4934.60564837    4934.58445802    4934.56326767    4934.54207732    4934.52088697    4934.49969662    4934.49711219    4934.51946144    4934.54181069    4934.56415994    4934.58650919    4934.60885844    4934.64753753    4934.67973179    4934.70735504    4934.73497829    4934.76260154    4934.79022479    4934.81773165    4934.81060016    4934.80107449    4934.77407974    4934.74708499    4934.72009024    4934.69309549    4934.66610074    4934.64654563    4934.63696033    4934.62737503    4934.61778973    4934.60820443    4934.59861913    4934.59890183    4934.60677095    4934.61549780    4934.62422465    4934.63295150    4934.64167835    4934.65033031    4934.63833659    4934.64318564    4934.64803469    4934.65288374    4934.65773279    4934.66258184    4934.67060219    4934.69127838    4934.70817867    4934.71357567    4934.71897267    4934.72436967    4934.72976667    4934.73516367
      4935.07353335    4935.05389130    4935.05692941    4935.06392811    4935.07092681    4935.07792551    4935.08076082    4935.04346812    4935.00617542    4934.96888272    4934.93159002    4934.90216648    4934.88824753    4934.87758512    4934.87128677    4934.88454357    4934.91599647    4934.94744937    4934.97890227    4935.01035517    4935.00410018    4934.98598093    4934.99074016    4934.99949461    4935.00824906    4935.01700351    4935.02200859    4934.99087609    4934.95974359    4934.92861109    4934.89747859    4934.87823247    4934.88240607    4934.89693734    4934.92534884    4934.94192515    4934.94748880    4934.95305245    4934.95861610    4934.96417975    4934.95384174    4934.93850049    4934.93946500    4934.94327695    4934.94708890    4934.95090085    4934.95305216    4934.93919771    4934.92813999    4934.92943029    4934.93072059    4934.93201089    4934.93330119    4934.90661337    4934.84243227    4934.77825117    4934.71407007    4934.64988897    4934.62729769    4934.62519094    4934.61143024    4934.59400279    4934.57657534    4934.55914789    4934.54166434    4934.50740494    4934.47569002    4934.46849962    4934.46923056    4934.50493551    4934.54064046    4934.57634541    4934.61205036    4934.62684980    4934.61363390    4934.60041800    4934.58720210    4934.57398620    4934.56854890    4934.56694285    4934.56012540    4934.55166825    4934.52024872    4934.48481932    4934.44938992    4934.41396052    4934.38425991    4934.40977506    4934.43529021    4934.46080536    4934.48632051    4934.50112052    4934.49480852    4934.48839371    4934.48184111    4934.47528851    4934.46873591    4934.46218331    4934.47396080    4934.49476655    4934.51450843    4934.53391558    4934.55332273    4934.57272988    4934.59211483    4934.60486273    4934.61195043    4934.56448338    4934.52042479    4934.49141509    4934.46240539    4934.43339569    4934.40438599    4934.39357351    4934.40714701    4934.43135445    4934.46545680    4934.49955915    4934.53366150    4934.56776385    4934.57759325    4934.57978550    4934.57389358    4934.56658993    4934.55928628    4934.55198263    4934.54452051    4934.53553101    4934.52654151    4934.51755201    4934.50856251    4934.50684450    4934.51945350    4934.53027744    4934.53870924    4934.54356195    4934.54508430    4934.54660665    4934.54812900    4934.54965135    4934.56065689    4934.57464619    4934.58863549    4934.60262479    4934.61654591    4934.61008151    4934.60283939    4934.58810129    4934.57217167    4934.55098132    4934.52979097    4934.50860062    4934.48741027    4934.48482584    4934.50717509    4934.52952434    4934.55187359    4934.57422284    4934.61290193    4934.65962408    4934.69181834    4934.71944159    4934.74706484    4934.77468809    4934.80219495    4934.79490135    4934.78776986    4934.78220081    4934.77267514    4934.74568039    4934.71868564    4934.69169089    4934.66469614    4934.64514103    4934.63555573    4934.62597043    4934.61638513    4934.60679983    4934.60708253    4934.61222558    4934.62009470    4934.62882155    4934.63754840    4934.64627525    4934.65492721    4934.64118601    4934.62919229    4934.63404134    4934.63889039    4934.64373944    4934.64858849    4934.65660884    4934.67087759    4934.69155378    4934.72081653    4934.73771682    4934.74311382    4934.74851082    4934.75390782    4934.75930482