# File generated by Flopy version 3.8.0 on 02/12/2025 at 20:41:14.
BEGIN options
  SAVE_FLOWS
END options

BEGIN griddata
  icelltype
    CONSTANT  1
  k
    INTERNAL  FACTOR  1.0
        53.61736628      53.46137408      53.30538188      53.16019444      53.02032874      52.88046304      52.74033265      52.59765115      52.45496965      52.31228815      52.16061474      52.00057434      51.84053394      51.67877028      51.51469728      51.35062428      51.19283661      51.04743291      50.90202921      50.75662551      50.64065345      50.53394165      50.42722985      50.33262146      50.24397446      50.15532746      50.06083832      49.91004092      49.75924352      49.60844612      49.44585278      49.27228328      49.09871378      48.84480749      48.48324239      48.12167729      47.76860467      47.43226477      47.09592487      46.75958497      46.56991971      46.42640361      46.28288751      46.13459504      45.96521414      45.79583324      45.62581813      45.44969023      45.27356233      45.09743437      44.92129087      44.74514737      44.56900387      44.36304323      44.11712483      43.87120643      43.65741189      43.50691089      43.35640989      43.20590889      43.01966629      42.82217809      42.62468989      42.42970079      42.24574559      42.06179039      41.87562129      41.66811399      41.46060669      41.25324199      41.08851379      40.92378559      40.75905739      40.58856109      40.41033499      40.23210889      40.05388279      39.85047297      39.64266537      39.43485777      39.21674420      38.99538800      38.77403180      38.57350644      38.38324104      38.19297564      37.99505783      37.72338383      37.45170983      37.18003583      36.93059009      36.70182779      36.47306549      36.29470951      36.18390271      36.07309591      35.96228911      35.76663127      35.55615607      35.34568087      35.22769833      35.13881733      35.04993633      34.95600179      34.85957819      34.76315459      34.66767498      34.58129388      34.49491278      34.40853168      34.32725967      34.25074167      34.17422367      34.09604240      34.01563220      33.93522200      33.85434437      33.77254577      33.69074717      33.60894857      33.53353410      33.46012830      33.38672250      33.31211108      33.23217668      33.15224228      33.07290141      32.99928111      32.92566081      32.85209145      32.79375525      32.73541905      32.67708285      32.61586844      32.55079694      32.48572544      32.42902562      32.38882052      32.34861542      32.30841032      32.24479282      32.17380892      32.10282502      32.05843623      32.02714653      31.99585683      31.96178060      31.90084700      31.83991340      31.77897980      31.70897147      31.63051907      31.55206667      31.43637576      31.27078176      31.10518776      30.93959376      30.82054232      30.70961852      30.59869472      30.39339151      30.15839311      29.92339471      29.70624574      29.56790494      29.42956414      29.29086737      29.14873967      29.00661197      28.86415276      28.62257116      28.38098956      28.13940796      27.94695256      27.82033087      27.69370918      27.53848786      27.32691676      27.11534566      26.90377456      26.71585438      26.53537564      26.35489690      26.21221677      26.08815387      25.96409097      25.83854151      25.69866411      25.55878671      25.41890931      25.30905289      25.22713105      25.14520921      25.07627385      25.02474159      24.97320933      24.86252616      24.63529812      24.40807008      24.18084204
        53.82834848      53.67235628      53.52716884      53.38730314      53.24743744      53.10757174      52.96744135      52.82475985      52.68207835      52.53939685      52.39671535      52.24504194      52.08500154      51.92323788      51.75916488      51.60137721      51.45597351      51.31056981      51.16516611      51.01976241      50.90379035      50.79707855      50.70247016      50.61382316      50.52517616      50.43652916      50.34204002      50.19124262      50.04044522      49.88964782      49.73885042      49.57625708      49.40268758      49.14878129      48.78721619      48.43414357      48.09780367      47.76146377      47.42512387      47.08878397      46.89911871      46.75560261      46.61208651      46.46857041      46.32027794      46.15089704      45.98088193      45.80475403      45.62862607      45.45248257      45.27633907      45.10019557      44.92405207      44.71809143      44.47217303      44.25837849      44.10787749      43.95737649      43.80687549      43.65637449      43.47013189      43.27264369      43.07515549      42.87766729      42.68267819      42.49872299      42.31255389      42.10504659      41.89768189      41.73295369      41.56822549      41.40349729      41.23876909      41.06827279      40.89004669      40.71182059      40.53359449      40.35536839      40.15195857      39.94415097      39.72603740      39.50468120      39.30415584      39.11389044      38.92362504      38.73335964      38.53544183      38.26376783      37.99209383      37.72041983      37.44874583      37.19930009      36.97053779      36.79218181      36.68137501      36.57056821      36.45976141      36.34895461      36.15329677      35.94282157      35.82483903      35.73595803      35.64202349      35.54559989      35.44917629      35.35275269      35.25727308      35.17089198      35.08451088      34.99812978      34.91174868      34.83047667      34.75395867      34.67577740      34.59536720      34.51448957      34.43269097      34.35089237      34.26909377      34.18729517      34.11188070      34.03847490      33.96506910      33.89166330      33.81705188      33.73711748      33.65777661      33.58415631      33.51058695      33.45225075      33.39391455      33.33557835      33.27724215      33.21602774      33.15095624      33.09425642      33.05405132      33.01384622      32.97364112      32.93343602      32.86981852      32.79883462      32.75444583      32.72315613      32.69186643      32.66057673      32.62650050      32.56556690      32.50463330      32.44369970      32.38276610      32.31275777      32.23430537      32.11861446      31.95302046      31.78742646      31.62183246      31.45623846      31.33718702      31.22626322      31.02096001      30.78596161      30.55096321      30.31596481      30.09881584      29.96047504      29.82177827      29.67965057      29.53719136      29.29560976      29.05402816      28.81244656      28.57086496      28.37840956      28.25178787      28.09656655      27.88499545      27.67342435      27.46185325      27.25028215      27.06236197      26.88188323      26.73920310      26.61514020      26.49107730      26.36701440      26.24146494      26.10158754      25.96171014      25.82183274      25.68195534      25.57209892      25.49017708      25.42124172      25.36970946      25.25902629      25.03179825      24.80457021      24.57734217      24.35011413
        54.03933068      53.89414324      53.75427754      53.61441184      53.47454614      53.33468044      53.19455005      53.05186855      52.90918705      52.76650555      52.62382405      52.48114255      52.32946914      52.16770548      52.00991781      51.86451411      51.71911041      51.57370671      51.42830301      51.28289931      51.16692725      51.07231886      50.98367186      50.89502486      50.80637786      50.71773086      50.62324172      50.47244432      50.32164692      50.17084952      50.02005212      49.86925472      49.70666138      49.45275509      49.09968247      48.76334257      48.42700267      48.09066277      47.75432287      47.41798297      47.22831771      47.08480161      46.94128551      46.79776941      46.65425331      46.50596084      46.33594573      46.15981777      45.98367427      45.80753077      45.63138727      45.45524377      45.27910027      45.07313963      44.85934509      44.70884409      44.55834309      44.40784209      44.25734109      44.10684009      43.92059749      43.72310929      43.52562109      43.32813289      43.13064469      42.93565559      42.74948649      42.54212179      42.37739359      42.21266539      42.04793719      41.88320899      41.71848079      41.54798449      41.36975839      41.19153229      41.01330619      40.83508009      40.65685399      40.45344417      40.23533060      40.03480524      39.84453984      39.65427444      39.46400904      39.27374364      39.07582583      38.80415183      38.53247783      38.26080383      37.98912983      37.71745583      37.46801009      37.28965411      37.17884731      37.06804051      36.95723371      36.84642691      36.73562011      36.53996227      36.42197973      36.32804519      36.23162159      36.13519799      36.03877439      35.94235079      35.84687118      35.76049008      35.67410898      35.58772788      35.50134678      35.41496568      35.33369367      35.25551240      35.17463477      35.09283617      35.01103757      34.92923897      34.84744037      34.76564177      34.69022730      34.61682150      34.54341570      34.47000990      34.39660410      34.32199268      34.24265181      34.16908245      34.11074625      34.05241005      33.99407385      33.93573765      33.87740145      33.81618704      33.75948722      33.71928212      33.67907702      33.63887192      33.59866682      33.55846172      33.49484422      33.45045543      33.41916573      33.38787603      33.35658633      33.32529663      33.29122040      33.23028680      33.16935320      33.10841960      33.04748600      32.98655240      32.91654407      32.80085316      32.63525916      32.46966516      32.30407116      32.13847716      31.97288316      31.85383172      31.64852851      31.41353011      31.17853171      30.94353331      30.70853491      30.49138594      30.35268917      30.21022996      29.96864836      29.72706676      29.48548516      29.24390356      29.00232196      28.80986656      28.65464524      28.44307414      28.23150304      28.01993194      27.80836084      27.59678974      27.40886956      27.26618943      27.14212653      27.01806363      26.89400073      26.76993783      26.64438837      26.50451097      26.36463357      26.22475617      26.08487877      25.94500137      25.83514495      25.76620959      25.65552642      25.42829838      25.20107034      24.97384230      24.74661426      24.51938622
        54.26111764      54.12125194      53.98138624      53.84152054      53.70165484      53.56178914      53.42165875      53.27897725      53.13629575      52.99361425      52.85093275      52.70825125      52.56556975      52.41845841      52.27305471      52.12765101      51.98224731      51.83684361      51.69143991      51.54603621      51.44216756      51.35352056      51.26487356      51.17622656      51.08757956      50.99893256      50.90444342      50.75364602      50.60284862      50.45205122      50.30125382      50.15045642      49.99965902      49.76522137      49.42888147      49.09254157      48.75620167      48.41986177      48.08352187      47.74718197      47.55751671      47.41400061      47.27048451      47.12696841      46.98345231      46.83993621      46.69100947      46.51486597      46.33872247      46.16257897      45.98643547      45.81029197      45.63414847      45.46031169      45.30981069      45.15930969      45.00880869      44.85830769      44.70780669      44.55730569      44.37106309      44.17357489      43.97608669      43.77859849      43.58111029      43.38362209      43.18656169      43.02183349      42.85710529      42.69237709      42.52764889      42.36292069      42.19819249      42.02769619      41.84947009      41.67124399      41.49301789      41.31479179      41.13656569      40.95833959      40.76545464      40.57518924      40.38492384      40.19465844      40.00439304      39.81412764      39.61620983      39.34453583      39.07286183      38.80118783      38.52951383      38.25783983      37.98616583      37.78712641      37.67631961      37.56551281      37.45470601      37.34389921      37.23309241      37.12228561      37.01406689      36.91764329      36.82121969      36.72479609      36.62837249      36.53194889      36.43646928      36.35008818      36.26370708      36.17732598      36.09094488      36.00456378      35.91818268      35.83477997      35.75298137      35.67118277      35.58938417      35.50758557      35.42578697      35.34398837      35.26857390      35.19516810      35.12176230      35.04835650      34.97495070      34.90154490      34.82757795      34.76924175      34.71090555      34.65256935      34.59423315      34.53589695      34.47756075      34.42471802      34.38451292      34.34430782      34.30410272      34.26389762      34.22369252      34.18348742      34.14646503      34.11517533      34.08388563      34.05259593      34.02130623      33.99001653      33.95594030      33.89500670      33.83407310      33.77313950      33.71220590      33.65127230      33.59033870      33.48309186      33.31749786      33.15190386      32.98630986      32.82071586      32.65512186      32.48952786      32.27609701      32.04109861      31.80610021      31.57110181      31.33610341      31.10110501      30.88326856      30.64168696      30.40010536      30.15852376      29.91694216      29.67536056      29.43377896      29.21272393      29.00115283      28.78958173      28.57801063      28.36643953      28.15486843      27.94329733      27.79317576      27.66911286      27.54504996      27.42098706      27.29692416      27.17286126      27.04731180      26.90743440      26.76755700      26.62767960      26.48780220      26.34792480      26.20804740      26.05202655      25.82479851      25.59757047      25.37034243      25.14311439      24.91588635      24.68865831
        54.48557116      54.34834645      54.20848075      54.06861505      53.92874935      53.78888365      53.64875326      53.50607176      53.36339026      53.22070876      53.07802726      52.93534576      52.79907958      52.67499683      52.53957487      52.39417117      52.24876747      52.10336377      51.95796007      51.81255637      51.61346611      51.50588864      51.41724164      51.32859464      51.23994764      51.15130064      51.05681150      50.90601410      50.75521670      50.60441930      50.45362190      50.30282450      50.16425245      50.02631722      49.77046096      49.43412106      49.09778116      48.76144126      48.42510136      48.08876146      47.90633470      47.76423331      47.62071721      47.47720111      47.33368501      47.19016891      47.04965930      46.92619554      46.75005204      46.57390854      46.39776504      46.22162154      46.04547804      45.88029244      45.72979144      45.57929044      45.42878944      45.27828844      45.12778744      44.97252033      44.78457521      44.58708701      44.38959881      44.19211061      43.99462241      43.79740917      43.68155349      43.54994291      43.38521471      43.22048651      43.05575831      42.89103011      42.72630191      42.55580561      42.37757951      42.19935341      42.02112731      41.84290121      41.66467511      41.51454921      41.36820100      41.18399393      40.99372853      40.80346313      40.61319773      40.42293233      40.22501452      39.95334052      39.68166652      39.40999252      39.13831852      38.86664452      38.60354967      38.41521262      38.30440582      38.19359902      38.08279222      37.97198542      37.86117862      37.76291683      37.66753210      37.57110850      37.47468490      37.37826130      37.28183770      37.18539891      37.08427470      36.98476103      36.89837993      36.81199883      36.72561773      36.63923663      36.55285553      36.46200960      36.37296626      36.29116766      36.20936906      36.12757046      36.04577186      35.96397326      35.88236452      35.80774810      35.73434230      35.66093650      35.58753070      35.51412490      35.44213564      35.38379944      35.32546324      35.26712704      35.20879084      35.15045464      35.09300996      35.05208127      35.02106088      34.98085578      34.94065068      34.90044558      34.86024048      34.82003538      34.78661192      34.75532222      34.72403252      34.69274282      34.66145312      34.63031658      34.64470003      34.64303154      34.58209794      34.52116434      34.46023074      34.39929714      34.33836354      34.23270506      34.06711106      33.90151706      33.73592306      33.57032906      33.40473506      33.21132829      32.98300557      32.74800717      32.51300877      32.27801037      32.04301197      31.80743587      31.40385878      31.06736333      30.82578173      30.58420013      30.34261853      30.10103693      29.85945533      29.63069822      29.41912712      29.20755602      28.99598492      28.78441382      28.57284272      28.34220194      28.19038346      28.06632056      27.94225766      27.81819476      27.69413186      27.56970270      27.34460322      27.20472582      27.06484842      26.92497102      26.78509362      26.64521622      26.48791794      26.31021645      26.11585220      25.88862416      25.66139612      25.43416808      25.20694004      24.97971200
        54.69489976      54.57279856      54.43557385      54.29570815      54.15584245      54.01597675      53.87584636      53.73316486      53.59048336      53.44780186      53.30512036      53.16885418      53.04522808      52.92114533      52.79645063      52.66102867      52.51562497      52.37022127      52.22481757      52.07941387      51.88032361      51.66434161      51.55676414      51.46811714      51.37947014      51.29082314      51.19633400      51.04553660      50.89473920      50.74394180      50.59314440      50.45457235      50.34008785      50.20215262      50.03279122      49.77693496      49.44059506      49.10425516      48.76791526      48.43157536      48.24914860      48.11514850      47.97304711      47.82953101      47.68601491      47.54249881      47.40198920      47.29045700      47.16699324      46.99084974      46.81470624      46.63856274      46.46241924      46.29723364      46.14673264      45.99623164      45.84573064      45.69522964      45.53996253      45.38234793      45.19440281      44.99691461      44.79942641      44.60193821      44.40472497      44.28972567      44.17386999      44.04976029      43.91814971      43.75342151      43.58869331      43.42396511      43.25923691      43.08874061      42.91051451      42.73228841      42.55406231      42.37583621      42.22571031      42.08942481      41.94307660      41.79356230      41.60935523      41.41908983      41.22882443      41.03855903      40.84064122      40.56896722      40.29729322      40.02561922      39.75394522      39.49085037      39.24465897      39.05632192      38.94551512      38.83470832      38.72390152      38.61309472      38.51483293      38.42275003      38.32736530      38.23094170      38.13451810      38.03809450      37.94165571      37.84067301      37.73954880      37.63706070      37.53754703      37.45116593      37.36478483      37.27840373      37.19202263      37.10117670      37.00434750      36.91530416      36.83350556      36.75170696      36.66990836      36.58810976      36.50650102      36.42495202      36.35033560      36.27692980      36.20352400      36.13011820      36.05812894      35.99979274      35.94145654      35.88312034      35.82478414      35.76733946      35.71165136      35.67072267      35.64957297      35.61855258      35.57834748      35.53814238      35.49793728      35.45773218      35.42430872      35.39301902      35.36172932      35.33043962      35.29930308      35.31395928      35.32834273      35.34009733      35.33842884      35.27749524      35.21656164      35.15562804      35.09469444      34.98903596      34.82344196      34.65784796      34.49225396      34.32665996      34.13325319      33.92614759      33.69782487      33.46282647      33.22782807      32.99282967      32.75725357      32.34894697      31.94536988      31.58737718      31.25088173      31.00930013      30.76771853      30.52613693      30.28455533      30.05579822      29.84422712      29.63265602      29.42108492      29.20951382      28.97887304      28.73883974      28.58702126      28.46295836      28.33889546      28.21483256      28.09040340      27.85646190      27.63136242      27.49148502      27.35160762      27.21173022      27.07185282      26.91455454      26.72293194      26.54523045      26.38618455      26.19182030      25.96459226      25.73736422      25.51013618      25.28290814
        54.90422836      54.78212716      54.66002596      54.52280125      54.38293555      54.24306985      54.10293946      53.96025796      53.81757646      53.67489496      53.53862878      53.41500268      53.29137658      53.16729383      53.04259913      52.91790443      52.78248247      52.63707877      52.49167507      52.34627137      52.14718111      51.93119911      51.71521711      51.60763964      51.51899264      51.43034564      51.33585650      51.18505910      51.03426170      50.88346430      50.74489225      50.63040775      50.51592325      50.37798802      50.20862662      50.03926522      49.78340896      49.44706906      49.11072916      48.77438926      48.59196250      48.45796240      48.32396230      48.18186091      48.03834481      47.89482871      47.75431910      47.64278690      47.53125470      47.40779094      47.23164744      47.05550394      46.87936044      46.71417484      46.56367384      46.41317284      46.26267184      46.10740473      45.94979013      45.79217553      45.60423041      45.40674221      45.20925401      45.01204077      44.89704147      44.78204217      44.66618649      44.54207679      44.41796709      44.28635651      44.12162831      43.95690011      43.79217191      43.62167561      43.44344951      43.26522341      43.08699731      42.93687141      42.80058591      42.66430041      42.51795220      42.36843790      42.21892360      42.03471653      41.84445113      41.65418573      41.45626792      41.18459392      40.91291992      40.64124592      40.37815107      40.13195967      39.88576827      39.69743122      39.58662442      39.47581762      39.36501082      39.26674903      39.17466613      39.08258323      38.98719850      38.89077490      38.79435130      38.69791251      38.59692981      38.49594711      38.39482290      38.29233480      38.18984670      38.09033303      38.00395193      37.91757083      37.83118973      37.74034380      37.64351460      37.54668540      37.45764206      37.37584346      37.29404486      37.21224626      37.13063752      37.04908852      36.96753952      36.89292310      36.81951730      36.74611150      36.67412224      36.61578604      36.55744984      36.49911364      36.44166896      36.38598086      36.33029276      36.28936407      36.26821437      36.24706467      36.21604428      36.17583918      36.13563408      36.09542898      36.06200552      36.03071582      35.99942612      35.96828958      35.98294578      35.99760198      36.01198543      36.02374003      36.03549463      36.03382614      35.97289254      35.91195894      35.85102534      35.74536686      35.57977286      35.41417886      35.24858486      35.05517809      34.84807249      34.64096689      34.41264417      34.17764577      33.94264737      33.70707127      33.29876467      32.89045807      32.48688098      32.12888828      31.77089558      31.43440013      31.19281853      30.95123693      30.70965533      30.48089822      30.26932712      30.05775602      29.84618492      29.61554414      29.37551084      29.13547754      28.98365906      28.85959616      28.73553326      28.61110410      28.37716260      28.14322110      27.91812162      27.77824422      27.63836682      27.49848942      27.34119114      27.14956854      26.95794594      26.78024445      26.62119855      26.46215265      26.26778840      26.04056036      25.81333232      25.58610428
        55.11355696      54.99145576      54.86935456      54.74725336      54.61002865      54.47016295      54.33003256      54.18735106      54.04466956      53.90840338      53.78477728      53.66115118      53.53752508      53.41344233      53.28874763      53.16405293      53.03935823      52.90393627      52.75853257      52.61312887      52.41403861      52.19805661      51.98207461      51.76609261      51.65851514      51.56986814      51.47537900      51.32458160      51.17378420      51.03521215      50.92072765      50.80624315      50.69175865      50.55382342      50.38446202      50.21510062      50.04573922      49.78988296      49.45354306      49.11720316      48.93477640      48.80077630      48.66677620      48.53277610      48.39067471      48.24715861      48.10664900      47.99511680      47.88358460      47.77205240      47.64858864      47.47244514      47.29630164      47.13111604      46.98061504      46.83011404      46.67484693      46.51723233      46.35961773      46.20200313      46.01405801      45.81656981      45.61935657      45.50435727      45.38935797      45.27435867      45.15850299      45.03439329      44.91028359      44.78617389      44.65456331      44.48983511      44.32510691      44.15461061      43.97638451      43.79815841      43.64803251      43.51174701      43.37546151      43.23917601      43.09282780      42.94331350      42.79379920      42.64428490      42.46007783      42.26981243      42.07189462      41.80022062      41.52854662      41.26545177      41.01926037      40.77306897      40.52687757      40.33854052      40.22773372      40.11692692      40.01866513      39.92658223      39.83449933      39.74241643      39.64703170      39.55060810      39.45416931      39.35318661      39.25220391      39.15122121      39.05009700      38.94760890      38.84512080      38.74263270      38.64311903      38.55673793      38.47035683      38.37951090      38.28268170      38.18585250      38.08902330      37.99997996      37.91818136      37.83638276      37.75477402      37.67322502      37.59167602      37.51012702      37.43551060      37.36210480      37.29011554      37.23177934      37.17344314      37.11599846      37.06031036      37.00462226      36.94893416      36.90800547      36.88685577      36.86570607      36.84455637      36.81353598      36.77333088      36.73312578      36.69970232      36.66841262      36.63727608      36.65193228      36.66658848      36.68124468      36.69562813      36.70738273      36.71913733      36.73089193      36.72922344      36.66828984      36.60735624      36.50169776      36.33610376      36.17050976      35.97710299      35.76999739      35.56289179      35.35578619      35.12746347      34.89246507      34.65688897      34.24858237      33.84027577      33.43196917      33.02839208      32.67039938      32.31240668      31.95441398      31.61791853      31.37633693      31.13475533      30.90599822      30.69442712      30.48285602      30.25221524      30.01218194      29.77214864      29.53211534      29.38029686      29.25623396      29.13180480      28.89786330      28.66392180      28.42998030      28.20488082      28.06500342      27.92512602      27.76782774      27.57620514      27.38458254      27.19295994      27.01525845      26.85621255      26.69716665      26.53812075      26.34375650      26.11652846      25.88930042