# File generated by Flopy version 3.8.0 on 02/12/2025 at 20:42:06.
BEGIN options
END options

BEGIN griddata
  strt
    CONSTANT    4924.00000000
END griddata

