# File generated by Flopy version 3.8.0 on 01/04/2025 at 09:42:08.
BEGIN options
END options

BEGIN griddata
  iconvert
    CONSTANT  3
  ss
    CONSTANT  1.00000000e-07
  sy
    CONSTANT       7.58924635e-03
END griddata

BEGIN period  1
  STEADY-STATE
END period  1

BEGIN period  2
  TRANSIENT
END period  2

