# File generated by Flopy version 3.8.0 on 02/12/2025 at 19:09:06.
BEGIN options
END options

BEGIN dimensions
  MAXBOUND  1
END dimensions

BEGIN period  1
  2 101 98 0
END period  1

BEGIN period  2
  2 101 98 -6.35000000E+01
END period  2

BEGIN period  3
  2 101 98 0
END period  3

