# File generated by Flopy version 3.8.0 on 02/12/2025 at 19:08:13.
BEGIN options
  SAVE_FLOWS
END options

BEGIN dimensions
  MAXBOUND  796
END dimensions

BEGIN period  1
  2 1 1 4.92414759E+03
  2 2 1 4.92414618E+03
  2 3 1 4.92414478E+03
  2 4 1 4.92414337E+03
  2 5 1 4.92414199E+03
  2 6 1 4.92414063E+03
  2 7 1 4.92413926E+03
  2 8 1 4.92413789E+03
  2 9 1 4.92413652E+03
  2 10 1 4.92413515E+03
  2 11 1 4.92413379E+03
  2 12 1 4.92413247E+03
  2 13 1 4.92413115E+03
  2 14 1 4.92412984E+03
  2 15 1 4.92412852E+03
  2 16 1 4.92412720E+03
  2 17 1 4.92412588E+03
  2 18 1 4.92412459E+03
  2 19 1 4.92412333E+03
  2 20 1 4.92412206E+03
  2 21 1 4.92412079E+03
  2 22 1 4.92411953E+03
  2 23 1 4.92411826E+03
  2 24 1 4.92411699E+03
  2 25 1 4.92411577E+03
  2 26 1 4.92411455E+03
  2 27 1 4.92411333E+03
  2 28 1 4.92411211E+03
  2 29 1 4.92411089E+03
  2 30 1 4.92410968E+03
  2 31 1 4.92410847E+03
  2 32 1 4.92410730E+03
  2 33 1 4.92410613E+03
  2 34 1 4.92410496E+03
  2 35 1 4.92410379E+03
  2 36 1 4.92410262E+03
  2 37 1 4.92410145E+03
  2 38 1 4.92410030E+03
  2 39 1 4.92409918E+03
  2 40 1 4.92409806E+03
  2 41 1 4.92409694E+03
  2 42 1 4.92409581E+03
  2 43 1 4.92409469E+03
  2 44 1 4.92409357E+03
  2 45 1 4.92409253E+03
  2 46 1 4.92409149E+03
  2 47 1 4.92409046E+03
  2 48 1 4.92408943E+03
  2 49 1 4.92408839E+03
  2 50 1 4.92408736E+03
  2 51 1 4.92408635E+03
  2 52 1 4.92408537E+03
  2 53 1 4.92408438E+03
  2 54 1 4.92408340E+03
  2 55 1 4.92408241E+03
  2 56 1 4.92408142E+03
  2 57 1 4.92408044E+03
  2 58 1 4.92407948E+03
  2 59 1 4.92407854E+03
  2 60 1 4.92407760E+03
  2 61 1 4.92407665E+03
  2 62 1 4.92407571E+03
  2 63 1 4.92407477E+03
  2 64 1 4.92407382E+03
  2 65 1 4.92407292E+03
  2 66 1 4.92407201E+03
  2 67 1 4.92407111E+03
  2 68 1 4.92407021E+03
  2 69 1 4.92406930E+03
  2 70 1 4.92406840E+03
  2 71 1 4.92406753E+03
  2 72 1 4.92406667E+03
  2 73 1 4.92406581E+03
  2 74 1 4.92406494E+03
  2 75 1 4.92406408E+03
  2 76 1 4.92406321E+03
  2 77 1 4.92406235E+03
  2 78 1 4.92406151E+03
  2 79 1 4.92406068E+03
  2 80 1 4.92405985E+03
  2 81 1 4.92405902E+03
  2 82 1 4.92405819E+03
  2 83 1 4.92405736E+03
  2 84 1 4.92405653E+03
  2 85 1 4.92405572E+03
  2 86 1 4.92405492E+03
  2 87 1 4.92405411E+03
  2 88 1 4.92405331E+03
  2 89 1 4.92405250E+03
  2 90 1 4.92405170E+03
  2 91 1 4.92405091E+03
  2 92 1 4.92405012E+03
  2 93 1 4.92404933E+03
  2 94 1 4.92404855E+03
  2 95 1 4.92404776E+03
  2 96 1 4.92404698E+03
  2 97 1 4.92404620E+03
  2 98 1 4.92404543E+03
  2 99 1 4.92404466E+03
  2 100 1 4.92404389E+03
  2 101 1 4.92404312E+03
  2 102 1 4.92404235E+03
  2 103 1 4.92404158E+03
  2 104 1 4.92404081E+03
  2 105 1 4.92404007E+03
  2 106 1 4.92403934E+03
  2 107 1 4.92403860E+03
  2 108 1 4.92403786E+03
  2 109 1 4.92403713E+03
  2 110 1 4.92403639E+03
  2 111 1 4.92403568E+03
  2 112 1 4.92403501E+03
  2 113 1 4.92403434E+03
  2 114 1 4.92403367E+03
  2 115 1 4.92403300E+03
  2 116 1 4.92403233E+03
  2 117 1 4.92403166E+03
  2 118 1 4.92403101E+03
  2 119 1 4.92403037E+03
  2 120 1 4.92402973E+03
  2 121 1 4.92402909E+03
  2 122 1 4.92402845E+03
  2 123 1 4.92402781E+03
  2 124 1 4.92402718E+03
  2 125 1 4.92402658E+03
  2 126 1 4.92402597E+03
  2 127 1 4.92402536E+03
  2 128 1 4.92402476E+03
  2 129 1 4.92402415E+03
  2 130 1 4.92402354E+03
  2 131 1 4.92402296E+03
  2 132 1 4.92402239E+03
  2 133 1 4.92402180E+03
  2 134 1 4.92402122E+03
  2 135 1 4.92402063E+03
  2 136 1 4.92402005E+03
  2 137 1 4.92401946E+03
  2 138 1 4.92401890E+03
  2 139 1 4.92401833E+03
  2 140 1 4.92401776E+03
  2 141 1 4.92401720E+03
  2 142 1 4.92401663E+03
  2 143 1 4.92401606E+03
  2 144 1 4.92401549E+03
  2 145 1 4.92401495E+03
  2 146 1 4.92401440E+03
  2 147 1 4.92401385E+03
  2 148 1 4.92401329E+03
  2 149 1 4.92401274E+03
  2 150 1 4.92401219E+03
  2 151 1 4.92401164E+03
  2 152 1 4.92401108E+03
  2 153 1 4.92401052E+03
  2 154 1 4.92400996E+03
  2 155 1 4.92400940E+03
  2 156 1 4.92400884E+03
  2 157 1 4.92400829E+03
  2 158 1 4.92400774E+03
  2 159 1 4.92400719E+03
  2 160 1 4.92400664E+03
  2 161 1 4.92400608E+03
  2 162 1 4.92400553E+03
  2 163 1 4.92400498E+03
  2 164 1 4.92400444E+03
  2 165 1 4.92400392E+03
  2 166 1 4.92400338E+03
  2 167 1 4.92400284E+03
  2 168 1 4.92400230E+03
  2 169 1 4.92400176E+03
  2 170 1 4.92400122E+03
  2 171 1 4.92400069E+03
  2 172 1 4.92400018E+03
  2 173 1 4.92399966E+03
  2 174 1 4.92399915E+03
  2 175 1 4.92399864E+03
  2 176 1 4.92399813E+03
  2 177 1 4.92399763E+03
  2 178 1 4.92399716E+03
  2 179 1 4.92399669E+03
  2 180 1 4.92399622E+03
  2 181 1 4.92399575E+03
  2 182 1 4.92399529E+03
  2 183 1 4.92399482E+03
  2 184 1 4.92399435E+03
  2 185 1 4.92399390E+03
  2 186 1 4.92399344E+03
  2 187 1 4.92399299E+03
  2 188 1 4.92399253E+03
  2 189 1 4.92399207E+03
  2 190 1 4.92399161E+03
  2 191 1 4.92399115E+03
  2 192 1 4.92399070E+03
  2 193 1 4.92399025E+03
  2 194 1 4.92398980E+03
  2 195 1 4.92398935E+03
  2 196 1 4.92398890E+03
  2 197 1 4.92398845E+03
  2 198 1 4.92398802E+03
  2 199 1 4.92398758E+03
  2 200 1 4.92398714E+03
  2 1 200 4.92348962E+03
  2 2 200 4.92348945E+03
  2 3 200 4.92348929E+03
  2 4 200 4.92348912E+03
  2 5 200 4.92348888E+03
  2 6 200 4.92348863E+03
  2 7 200 4.92348839E+03
  2 8 200 4.92348815E+03
  2 9 200 4.92348790E+03
  2 10 200 4.92348766E+03
  2 11 200 4.92348741E+03
  2 12 200 4.92348708E+03
  2 13 200 4.92348674E+03
  2 14 200 4.92348641E+03
  2 15 200 4.92348607E+03
  2 16 200 4.92348574E+03
  2 17 200 4.92348540E+03
  2 18 200 4.92348503E+03
  2 19 200 4.92348463E+03
  2 20 200 4.92348424E+03
  2 21 200 4.92348384E+03
  2 22 200 4.92348344E+03
  2 23 200 4.92348304E+03
  2 24 200 4.92348265E+03
  2 25 200 4.92348225E+03
  2 26 200 4.92348184E+03
  2 27 200 4.92348143E+03
  2 28 200 4.92348102E+03
  2 29 200 4.92348061E+03
  2 30 200 4.92348020E+03
  2 31 200 4.92347982E+03
  2 32 200 4.92347948E+03
  2 33 200 4.92347914E+03
  2 34 200 4.92347879E+03
  2 35 200 4.92347845E+03
  2 36 200 4.92347811E+03
  2 37 200 4.92347777E+03
  2 38 200 4.92347750E+03
  2 39 200 4.92347727E+03
  2 40 200 4.92347705E+03
  2 41 200 4.92347683E+03
  2 42 200 4.92347661E+03
  2 43 200 4.92347639E+03
  2 44 200 4.92347616E+03
  2 45 200 4.92347605E+03
  2 46 200 4.92347595E+03
  2 47 200 4.92347585E+03
  2 48 200 4.92347575E+03
  2 49 200 4.92347565E+03
  2 50 200 4.92347555E+03
  2 51 200 4.92347545E+03
  2 52 200 4.92347543E+03
  2 53 200 4.92347541E+03
  2 54 200 4.92347539E+03
  2 55 200 4.92347536E+03
  2 56 200 4.92347534E+03
  2 57 200 4.92347532E+03
  2 58 200 4.92347530E+03
  2 59 200 4.92347533E+03
  2 60 200 4.92347536E+03
  2 61 200 4.92347539E+03
  2 62 200 4.92347542E+03
  2 63 200 4.92347545E+03
  2 64 200 4.92347548E+03
  2 65 200 4.92347554E+03
  2 66 200 4.92347561E+03
  2 67 200 4.92347569E+03
  2 68 200 4.92347576E+03
  2 69 200 4.92347584E+03
  2 70 200 4.92347591E+03
  2 71 200 4.92347599E+03
  2 72 200 4.92347610E+03
  2 73 200 4.92347622E+03
  2 74 200 4.92347633E+03
  2 75 200 4.92347644E+03
  2 76 200 4.92347656E+03
  2 77 200 4.92347667E+03
  2 78 200 4.92347680E+03
  2 79 200 4.92347695E+03
  2 80 200 4.92347710E+03
  2 81 200 4.92347725E+03
  2 82 200 4.92347740E+03
  2 83 200 4.92347754E+03
  2 84 200 4.92347769E+03
  2 85 200 4.92347790E+03
  2 86 200 4.92347811E+03
  2 87 200 4.92347832E+03
  2 88 200 4.92347853E+03
  2 89 200 4.92347875E+03
  2 90 200 4.92347896E+03
  2 91 200 4.92347919E+03
  2 92 200 4.92347950E+03
  2 93 200 4.92347982E+03
  2 94 200 4.92348013E+03
  2 95 200 4.92348044E+03
  2 96 200 4.92348075E+03
  2 97 200 4.92348106E+03
  2 98 200 4.92348145E+03
  2 99 200 4.92348189E+03
  2 100 200 4.92348233E+03
  2 101 200 4.92348278E+03
  2 102 200 4.92348322E+03
  2 103 200 4.92348366E+03
  2 104 200 4.92348411E+03
  2 105 200 4.92348471E+03
  2 106 200 4.92348532E+03
  2 107 200 4.92348593E+03
  2 108 200 4.92348655E+03
  2 109 200 4.92348716E+03
  2 110 200 4.92348777E+03
  2 111 200 4.92348842E+03
  2 112 200 4.92348923E+03
  2 113 200 4.92349004E+03
  2 114 200 4.92349085E+03
  2 115 200 4.92349166E+03
  2 116 200 4.92349247E+03
  2 117 200 4.92349328E+03
  2 118 200 4.92349426E+03
  2 119 200 4.92349537E+03
  2 120 200 4.92349648E+03
  2 121 200 4.92349758E+03
  2 122 200 4.92349869E+03
  2 123 200 4.92349979E+03
  2 124 200 4.92350089E+03
  2 125 200 4.92350227E+03
  2 126 200 4.92350374E+03
  2 127 200 4.92350521E+03
  2 128 200 4.92350668E+03
  2 129 200 4.92350815E+03
  2 130 200 4.92350963E+03
  2 131 200 4.92351107E+03
  2 132 200 4.92351275E+03
  2 133 200 4.92351443E+03
  2 134 200 4.92351610E+03
  2 135 200 4.92351778E+03
  2 136 200 4.92351946E+03
  2 137 200 4.92352114E+03
  2 138 200 4.92352285E+03
  2 139 200 4.92352458E+03
  2 140 200 4.92352631E+03
  2 141 200 4.92352804E+03
  2 142 200 4.92352977E+03
  2 143 200 4.92353151E+03
  2 144 200 4.92353318E+03
  2 145 200 4.92353487E+03
  2 146 200 4.92353658E+03
  2 147 200 4.92353829E+03
  2 148 200 4.92354000E+03
  2 149 200 4.92354171E+03
  2 150 200 4.92354342E+03
  2 151 200 4.92354496E+03
  2 152 200 4.92354660E+03
  2 153 200 4.92354825E+03
  2 154 200 4.92354990E+03
  2 155 200 4.92355155E+03
  2 156 200 4.92355319E+03
  2 157 200 4.92355484E+03
  2 158 200 4.92355643E+03
  2 159 200 4.92355799E+03
  2 160 200 4.92355954E+03
  2 161 200 4.92356110E+03
  2 162 200 4.92356265E+03
  2 163 200 4.92356420E+03
  2 164 200 4.92356571E+03
  2 165 200 4.92356712E+03
  2 166 200 4.92356855E+03
  2 167 200 4.92356998E+03
  2 168 200 4.92357141E+03
  2 169 200 4.92357284E+03
  2 170 200 4.92357427E+03
  2 171 200 4.92357554E+03
  2 172 200 4.92357682E+03
  2 173 200 4.92357810E+03
  2 174 200 4.92357938E+03
  2 175 200 4.92358067E+03
  2 176 200 4.92358195E+03
  2 177 200 4.92358323E+03
  2 178 200 4.92358439E+03
  2 179 200 4.92358552E+03
  2 180 200 4.92358666E+03
  2 181 200 4.92358780E+03
  2 182 200 4.92358894E+03
  2 183 200 4.92359008E+03
  2 184 200 4.92359122E+03
  2 185 200 4.92359224E+03
  2 186 200 4.92359325E+03
  2 187 200 4.92359426E+03
  2 188 200 4.92359527E+03
  2 189 200 4.92359628E+03
  2 190 200 4.92359729E+03
  2 191 200 4.92359823E+03
  2 192 200 4.92359912E+03
  2 193 200 4.92360000E+03
  2 194 200 4.92360089E+03
  2 195 200 4.92360177E+03
  2 196 200 4.92360266E+03
  2 197 200 4.92360354E+03
  2 198 200 4.92360431E+03
  2 199 200 4.92360509E+03
  2 200 200 4.92360587E+03
  2 1 2 4.92414561E+03
  2 1 3 4.92414363E+03
  2 1 4 4.92414164E+03
  2 1 5 4.92413966E+03
  2 1 6 4.92413767E+03
  2 1 7 4.92413567E+03
  2 1 8 4.92413359E+03
  2 1 9 4.92413150E+03
  2 1 10 4.92412941E+03
  2 1 11 4.92412733E+03
  2 1 12 4.92412525E+03
  2 1 13 4.92412317E+03
  2 1 14 4.92412110E+03
  2 1 15 4.92411903E+03
  2 1 16 4.92411696E+03
  2 1 17 4.92411489E+03
  2 1 18 4.92411281E+03
  2 1 19 4.92411074E+03
  2 1 20 4.92410866E+03
  2 1 21 4.92410656E+03
  2 1 22 4.92410445E+03
  2 1 23 4.92410234E+03
  2 1 24 4.92410022E+03
  2 1 25 4.92409811E+03
  2 1 26 4.92409599E+03
  2 1 27 4.92409387E+03
  2 1 28 4.92409170E+03
  2 1 29 4.92408953E+03
  2 1 30 4.92408736E+03
  2 1 31 4.92408520E+03
  2 1 32 4.92408305E+03
  2 1 33 4.92408090E+03
  2 1 34 4.92407871E+03
  2 1 35 4.92407649E+03
  2 1 36 4.92407426E+03
  2 1 37 4.92407203E+03
  2 1 38 4.92406978E+03
  2 1 39 4.92406754E+03
  2 1 40 4.92406529E+03
  2 1 41 4.92406299E+03
  2 1 42 4.92406067E+03
  2 1 43 4.92405835E+03
  2 1 44 4.92405604E+03
  2 1 45 4.92405372E+03
  2 1 46 4.92405141E+03
  2 1 47 4.92404909E+03
  2 1 48 4.92404672E+03
  2 1 49 4.92404436E+03
  2 1 50 4.92404199E+03
  2 1 51 4.92403962E+03
  2 1 52 4.92403725E+03
  2 1 53 4.92403488E+03
  2 1 54 4.92403249E+03
  2 1 55 4.92403006E+03
  2 1 56 4.92402763E+03
  2 1 57 4.92402520E+03
  2 1 58 4.92402278E+03
  2 1 59 4.92402036E+03
  2 1 60 4.92401793E+03
  2 1 61 4.92401547E+03
  2 1 62 4.92401299E+03
  2 1 63 4.92401051E+03
  2 1 64 4.92400804E+03
  2 1 65 4.92400555E+03
  2 1 66 4.92400306E+03
  2 1 67 4.92400057E+03
  2 1 68 4.92399802E+03
  2 1 69 4.92399547E+03
  2 1 70 4.92399293E+03
  2 1 71 4.92399040E+03
  2 1 72 4.92398787E+03
  2 1 73 4.92398534E+03
  2 1 74 4.92398270E+03
  2 1 75 4.92397992E+03
  2 1 76 4.92397714E+03
  2 1 77 4.92397436E+03
  2 1 78 4.92397155E+03
  2 1 79 4.92396874E+03
  2 1 80 4.92396593E+03
  2 1 81 4.92396305E+03
  2 1 82 4.92396015E+03
  2 1 83 4.92395725E+03
  2 1 84 4.92395438E+03
  2 1 85 4.92395152E+03
  2 1 86 4.92394866E+03
  2 1 87 4.92394580E+03
  2 1 88 4.92394284E+03
  2 1 89 4.92393988E+03
  2 1 90 4.92393692E+03
  2 1 91 4.92393394E+03
  2 1 92 4.92393093E+03
  2 1 93 4.92392792E+03
  2 1 94 4.92392488E+03
  2 1 95 4.92392182E+03
  2 1 96 4.92391875E+03
  2 1 97 4.92391568E+03
  2 1 98 4.92391255E+03
  2 1 99 4.92390941E+03
  2 1 100 4.92390627E+03
  2 1 101 4.92390306E+03
  2 1 102 4.92389983E+03
  2 1 103 4.92389659E+03
  2 1 104 4.92389342E+03
  2 1 105 4.92389027E+03
  2 1 106 4.92388712E+03
  2 1 107 4.92388397E+03
  2 1 108 4.92388073E+03
  2 1 109 4.92387749E+03
  2 1 110 4.92387426E+03
  2 1 111 4.92387098E+03
  2 1 112 4.92386766E+03
  2 1 113 4.92386434E+03
  2 1 114 4.92386098E+03
  2 1 115 4.92385756E+03
  2 1 116 4.92385414E+03
  2 1 117 4.92385075E+03
  2 1 118 4.92384740E+03
  2 1 119 4.92384406E+03
  2 1 120 4.92384072E+03
  2 1 121 4.92383729E+03
  2 1 122 4.92383383E+03
  2 1 123 4.92383038E+03
  2 1 124 4.92382690E+03
  2 1 125 4.92382337E+03
  2 1 126 4.92381983E+03
  2 1 127 4.92381629E+03
  2 1 128 4.92381263E+03
  2 1 129 4.92380897E+03
  2 1 130 4.92380531E+03
  2 1 131 4.92380174E+03
  2 1 132 4.92379816E+03
  2 1 133 4.92379459E+03
  2 1 134 4.92379093E+03
  2 1 135 4.92378715E+03
  2 1 136 4.92378338E+03
  2 1 137 4.92377963E+03
  2 1 138 4.92377595E+03
  2 1 139 4.92377227E+03
  2 1 140 4.92376858E+03
  2 1 141 4.92376457E+03
  2 1 142 4.92376044E+03
  2 1 143 4.92375632E+03
  2 1 144 4.92375227E+03
  2 1 145 4.92374827E+03
  2 1 146 4.92374426E+03
  2 1 147 4.92374025E+03
  2 1 148 4.92373621E+03
  2 1 149 4.92373216E+03
  2 1 150 4.92372812E+03
  2 1 151 4.92372400E+03
  2 1 152 4.92371982E+03
  2 1 153 4.92371564E+03
  2 1 154 4.92371146E+03
  2 1 155 4.92370730E+03
  2 1 156 4.92370313E+03
  2 1 157 4.92369897E+03
  2 1 158 4.92369468E+03
  2 1 159 4.92369037E+03
  2 1 160 4.92368606E+03
  2 1 161 4.92368171E+03
  2 1 162 4.92367735E+03
  2 1 163 4.92367298E+03
  2 1 164 4.92366860E+03
  2 1 165 4.92366412E+03
  2 1 166 4.92365964E+03
  2 1 167 4.92365514E+03
  2 1 168 4.92365047E+03
  2 1 169 4.92364579E+03
  2 1 170 4.92364112E+03
  2 1 171 4.92363651E+03
  2 1 172 4.92363190E+03
  2 1 173 4.92362729E+03
  2 1 174 4.92362257E+03
  2 1 175 4.92361771E+03
  2 1 176 4.92361285E+03
  2 1 177 4.92360799E+03
  2 1 178 4.92360315E+03
  2 1 179 4.92359830E+03
  2 1 180 4.92359345E+03
  2 1 181 4.92358845E+03
  2 1 182 4.92358340E+03
  2 1 183 4.92357835E+03
  2 1 184 4.92357331E+03
  2 1 185 4.92356827E+03
  2 1 186 4.92356323E+03
  2 1 187 4.92355817E+03
  2 1 188 4.92355298E+03
  2 1 189 4.92354778E+03
  2 1 190 4.92354259E+03
  2 1 191 4.92353739E+03
  2 1 192 4.92353218E+03
  2 1 193 4.92352698E+03
  2 1 194 4.92352172E+03
  2 1 195 4.92351640E+03
  2 1 196 4.92351108E+03
  2 1 197 4.92350574E+03
  2 1 198 4.92350036E+03
  2 1 199 4.92349499E+03
  2 200 2 4.92398552E+03
  2 200 3 4.92398390E+03
  2 200 4 4.92398227E+03
  2 200 5 4.92398067E+03
  2 200 6 4.92397906E+03
  2 200 7 4.92397746E+03
  2 200 8 4.92397585E+03
  2 200 9 4.92397425E+03
  2 200 10 4.92397264E+03
  2 200 11 4.92397103E+03
  2 200 12 4.92396943E+03
  2 200 13 4.92396783E+03
  2 200 14 4.92396627E+03
  2 200 15 4.92396477E+03
  2 200 16 4.92396327E+03
  2 200 17 4.92396177E+03
  2 200 18 4.92396027E+03
  2 200 19 4.92395880E+03
  2 200 20 4.92395732E+03
  2 200 21 4.92395583E+03
  2 200 22 4.92395434E+03
  2 200 23 4.92395284E+03
  2 200 24 4.92395133E+03
  2 200 25 4.92394981E+03
  2 200 26 4.92394829E+03
  2 200 27 4.92394677E+03
  2 200 28 4.92394523E+03
  2 200 29 4.92394369E+03
  2 200 30 4.92394215E+03
  2 200 31 4.92394061E+03
  2 200 32 4.92393910E+03
  2 200 33 4.92393759E+03
  2 200 34 4.92393607E+03
  2 200 35 4.92393454E+03
  2 200 36 4.92393301E+03
  2 200 37 4.92393146E+03
  2 200 38 4.92392990E+03
  2 200 39 4.92392835E+03
  2 200 40 4.92392679E+03
  2 200 41 4.92392523E+03
  2 200 42 4.92392366E+03
  2 200 43 4.92392209E+03
  2 200 44 4.92392052E+03
  2 200 45 4.92391897E+03
  2 200 46 4.92391742E+03
  2 200 47 4.92391586E+03
  2 200 48 4.92391427E+03
  2 200 49 4.92391268E+03
  2 200 50 4.92391108E+03
  2 200 51 4.92390949E+03
  2 200 52 4.92390792E+03
  2 200 53 4.92390634E+03
  2 200 54 4.92390475E+03
  2 200 55 4.92390315E+03
  2 200 56 4.92390155E+03
  2 200 57 4.92389993E+03
  2 200 58 4.92389831E+03
  2 200 59 4.92389669E+03
  2 200 60 4.92389508E+03
  2 200 61 4.92389343E+03
  2 200 62 4.92389179E+03
  2 200 63 4.92389014E+03
  2 200 64 4.92388849E+03
  2 200 65 4.92388685E+03
  2 200 66 4.92388522E+03
  2 200 67 4.92388359E+03
  2 200 68 4.92388193E+03
  2 200 69 4.92388027E+03
  2 200 70 4.92387860E+03
  2 200 71 4.92387692E+03
  2 200 72 4.92387524E+03
  2 200 73 4.92387356E+03
  2 200 74 4.92387186E+03
  2 200 75 4.92387012E+03
  2 200 76 4.92386837E+03
  2 200 77 4.92386663E+03
  2 200 78 4.92386490E+03
  2 200 79 4.92386317E+03
  2 200 80 4.92386143E+03
  2 200 81 4.92385971E+03
  2 200 82 4.92385799E+03
  2 200 83 4.92385626E+03
  2 200 84 4.92385453E+03
  2 200 85 4.92385280E+03
  2 200 86 4.92385108E+03
  2 200 87 4.92384935E+03
  2 200 88 4.92384759E+03
  2 200 89 4.92384583E+03
  2 200 90 4.92384407E+03
  2 200 91 4.92384231E+03
  2 200 92 4.92384054E+03
  2 200 93 4.92383878E+03
  2 200 94 4.92383700E+03
  2 200 95 4.92383520E+03
  2 200 96 4.92383340E+03
  2 200 97 4.92383160E+03
  2 200 98 4.92382981E+03
  2 200 99 4.92382803E+03
  2 200 100 4.92382625E+03
  2 200 101 4.92382443E+03
  2 200 102 4.92382259E+03
  2 200 103 4.92382076E+03
  2 200 104 4.92381892E+03
  2 200 105 4.92381710E+03
  2 200 106 4.92381529E+03
  2 200 107 4.92381346E+03
  2 200 108 4.92381157E+03
  2 200 109 4.92380968E+03
  2 200 110 4.92380779E+03
  2 200 111 4.92380590E+03
  2 200 112 4.92380403E+03
  2 200 113 4.92380216E+03
  2 200 114 4.92380026E+03
  2 200 115 4.92379834E+03
  2 200 116 4.92379643E+03
  2 200 117 4.92379448E+03
  2 200 118 4.92379253E+03
  2 200 119 4.92379058E+03
  2 200 120 4.92378863E+03
  2 200 121 4.92378665E+03
  2 200 122 4.92378465E+03
  2 200 123 4.92378265E+03
  2 200 124 4.92378065E+03
  2 200 125 4.92377867E+03
  2 200 126 4.92377671E+03
  2 200 127 4.92377474E+03
  2 200 128 4.92377274E+03
  2 200 129 4.92377073E+03
  2 200 130 4.92376870E+03
  2 200 131 4.92376665E+03
  2 200 132 4.92376460E+03
  2 200 133 4.92376255E+03
  2 200 134 4.92376050E+03
  2 200 135 4.92375845E+03
  2 200 136 4.92375640E+03
  2 200 137 4.92375431E+03
  2 200 138 4.92375221E+03
  2 200 139 4.92375011E+03
  2 200 140 4.92374801E+03
  2 200 141 4.92374580E+03
  2 200 142 4.92374355E+03
  2 200 143 4.92374130E+03
  2 200 144 4.92373905E+03
  2 200 145 4.92373684E+03
  2 200 146 4.92373464E+03
  2 200 147 4.92373243E+03
  2 200 148 4.92373008E+03
  2 200 149 4.92372774E+03
  2 200 150 4.92372539E+03
  2 200 151 4.92372304E+03
  2 200 152 4.92372076E+03
  2 200 153 4.92371848E+03
  2 200 154 4.92371617E+03
  2 200 155 4.92371383E+03
  2 200 156 4.92371149E+03
  2 200 157 4.92370910E+03
  2 200 158 4.92370669E+03
  2 200 159 4.92370428E+03
  2 200 160 4.92370187E+03
  2 200 161 4.92369943E+03
  2 200 162 4.92369696E+03
  2 200 163 4.92369450E+03
  2 200 164 4.92369204E+03
  2 200 165 4.92368963E+03
  2 200 166 4.92368724E+03
  2 200 167 4.92368485E+03
  2 200 168 4.92368237E+03
  2 200 169 4.92367990E+03
  2 200 170 4.92367742E+03
  2 200 171 4.92367494E+03
  2 200 172 4.92367256E+03
  2 200 173 4.92367018E+03
  2 200 174 4.92366780E+03
  2 200 175 4.92366542E+03
  2 200 176 4.92366305E+03
  2 200 177 4.92366059E+03
  2 200 178 4.92365812E+03
  2 200 179 4.92365565E+03
  2 200 180 4.92365317E+03
  2 200 181 4.92365080E+03
  2 200 182 4.92364845E+03
  2 200 183 4.92364608E+03
  2 200 184 4.92364363E+03
  2 200 185 4.92364118E+03
  2 200 186 4.92363873E+03
  2 200 187 4.92363628E+03
  2 200 188 4.92363387E+03
  2 200 189 4.92363145E+03
  2 200 190 4.92362904E+03
  2 200 191 4.92362663E+03
  2 200 192 4.92362432E+03
  2 200 193 4.92362202E+03
  2 200 194 4.92361969E+03
  2 200 195 4.92361735E+03
  2 200 196 4.92361500E+03
  2 200 197 4.92361266E+03
  2 200 198 4.92361035E+03
  2 200 199 4.92360811E+03
END period  1

BEGIN period  2
  2 1 1 4.92412157E+03
  2 2 1 4.92412008E+03
  2 3 1 4.92411859E+03
  2 4 1 4.92411709E+03
  2 5 1 4.92411563E+03
  2 6 1 4.92411418E+03
  2 7 1 4.92411273E+03
  2 8 1 4.92411128E+03
  2 9 1 4.92410982E+03
  2 10 1 4.92410837E+03
  2 11 1 4.92410693E+03
  2 12 1 4.92410553E+03
  2 13 1 4.92410413E+03
  2 14 1 4.92410273E+03
  2 15 1 4.92410133E+03
  2 16 1 4.92409994E+03
  2 17 1 4.92409854E+03
  2 18 1 4.92409717E+03
  2 19 1 4.92409582E+03
  2 20 1 4.92409448E+03
  2 21 1 4.92409314E+03
  2 22 1 4.92409179E+03
  2 23 1 4.92409045E+03
  2 24 1 4.92408910E+03
  2 25 1 4.92408780E+03
  2 26 1 4.92408651E+03
  2 27 1 4.92408522E+03
  2 28 1 4.92408392E+03
  2 29 1 4.92408263E+03
  2 30 1 4.92408134E+03
  2 31 1 4.92408005E+03
  2 32 1 4.92407881E+03
  2 33 1 4.92407757E+03
  2 34 1 4.92407633E+03
  2 35 1 4.92407509E+03
  2 36 1 4.92407385E+03
  2 37 1 4.92407260E+03
  2 38 1 4.92407139E+03
  2 39 1 4.92407020E+03
  2 40 1 4.92406901E+03
  2 41 1 4.92406782E+03
  2 42 1 4.92406663E+03
  2 43 1 4.92406544E+03
  2 44 1 4.92406425E+03
  2 45 1 4.92406314E+03
  2 46 1 4.92406205E+03
  2 47 1 4.92406096E+03
  2 48 1 4.92405986E+03
  2 49 1 4.92405877E+03
  2 50 1 4.92405767E+03
  2 51 1 4.92405660E+03
  2 52 1 4.92405556E+03
  2 53 1 4.92405452E+03
  2 54 1 4.92405348E+03
  2 55 1 4.92405243E+03
  2 56 1 4.92405139E+03
  2 57 1 4.92405035E+03
  2 58 1 4.92404934E+03
  2 59 1 4.92404835E+03
  2 60 1 4.92404735E+03
  2 61 1 4.92404635E+03
  2 62 1 4.92404536E+03
  2 63 1 4.92404436E+03
  2 64 1 4.92404337E+03
  2 65 1 4.92404241E+03
  2 66 1 4.92404146E+03
  2 67 1 4.92404051E+03
  2 68 1 4.92403956E+03
  2 69 1 4.92403861E+03
  2 70 1 4.92403766E+03
  2 71 1 4.92403674E+03
  2 72 1 4.92403584E+03
  2 73 1 4.92403493E+03
  2 74 1 4.92403402E+03
  2 75 1 4.92403311E+03
  2 76 1 4.92403220E+03
  2 77 1 4.92403130E+03
  2 78 1 4.92403042E+03
  2 79 1 4.92402955E+03
  2 80 1 4.92402868E+03
  2 81 1 4.92402781E+03
  2 82 1 4.92402694E+03
  2 83 1 4.92402608E+03
  2 84 1 4.92402521E+03
  2 85 1 4.92402436E+03
  2 86 1 4.92402352E+03
  2 87 1 4.92402268E+03
  2 88 1 4.92402184E+03
  2 89 1 4.92402100E+03
  2 90 1 4.92402016E+03
  2 91 1 4.92401934E+03
  2 92 1 4.92401852E+03
  2 93 1 4.92401771E+03
  2 94 1 4.92401689E+03
  2 95 1 4.92401607E+03
  2 96 1 4.92401526E+03
  2 97 1 4.92401444E+03
  2 98 1 4.92401365E+03
  2 99 1 4.92401285E+03
  2 100 1 4.92401206E+03
  2 101 1 4.92401126E+03
  2 102 1 4.92401046E+03
  2 103 1 4.92400966E+03
  2 104 1 4.92400886E+03
  2 105 1 4.92400810E+03
  2 106 1 4.92400734E+03
  2 107 1 4.92400658E+03
  2 108 1 4.92400582E+03
  2 109 1 4.92400506E+03
  2 110 1 4.92400431E+03
  2 111 1 4.92400357E+03
  2 112 1 4.92400289E+03
  2 113 1 4.92400220E+03
  2 114 1 4.92400151E+03
  2 115 1 4.92400082E+03
  2 116 1 4.92400014E+03
  2 117 1 4.92399945E+03
  2 118 1 4.92399878E+03
  2 119 1 4.92399813E+03
  2 120 1 4.92399747E+03
  2 121 1 4.92399682E+03
  2 122 1 4.92399617E+03
  2 123 1 4.92399552E+03
  2 124 1 4.92399488E+03
  2 125 1 4.92399426E+03
  2 126 1 4.92399365E+03
  2 127 1 4.92399304E+03
  2 128 1 4.92399242E+03
  2 129 1 4.92399181E+03
  2 130 1 4.92399119E+03
  2 131 1 4.92399060E+03
  2 132 1 4.92399003E+03
  2 133 1 4.92398944E+03
  2 134 1 4.92398885E+03
  2 135 1 4.92398826E+03
  2 136 1 4.92398767E+03
  2 137 1 4.92398708E+03
  2 138 1 4.92398651E+03
  2 139 1 4.92398594E+03
  2 140 1 4.92398538E+03
  2 141 1 4.92398481E+03
  2 142 1 4.92398424E+03
  2 143 1 4.92398367E+03
  2 144 1 4.92398310E+03
  2 145 1 4.92398256E+03
  2 146 1 4.92398201E+03
  2 147 1 4.92398146E+03
  2 148 1 4.92398091E+03
  2 149 1 4.92398036E+03
  2 150 1 4.92397981E+03
  2 151 1 4.92397925E+03
  2 152 1 4.92397870E+03
  2 153 1 4.92397814E+03
  2 154 1 4.92397759E+03
  2 155 1 4.92397703E+03
  2 156 1 4.92397647E+03
  2 157 1 4.92397592E+03
  2 158 1 4.92397538E+03
  2 159 1 4.92397483E+03
  2 160 1 4.92397428E+03
  2 161 1 4.92397374E+03
  2 162 1 4.92397319E+03
  2 163 1 4.92397264E+03
  2 164 1 4.92397211E+03
  2 165 1 4.92397159E+03
  2 166 1 4.92397106E+03
  2 167 1 4.92397052E+03
  2 168 1 4.92396999E+03
  2 169 1 4.92396946E+03
  2 170 1 4.92396892E+03
  2 171 1 4.92396840E+03
  2 172 1 4.92396789E+03
  2 173 1 4.92396739E+03
  2 174 1 4.92396689E+03
  2 175 1 4.92396638E+03
  2 176 1 4.92396588E+03
  2 177 1 4.92396538E+03
  2 178 1 4.92396492E+03
  2 179 1 4.92396446E+03
  2 180 1 4.92396400E+03
  2 181 1 4.92396354E+03
  2 182 1 4.92396308E+03
  2 183 1 4.92396262E+03
  2 184 1 4.92396216E+03
  2 185 1 4.92396172E+03
  2 186 1 4.92396127E+03
  2 187 1 4.92396082E+03
  2 188 1 4.92396037E+03
  2 189 1 4.92395992E+03
  2 190 1 4.92395947E+03
  2 191 1 4.92395903E+03
  2 192 1 4.92395858E+03
  2 193 1 4.92395814E+03
  2 194 1 4.92395770E+03
  2 195 1 4.92395726E+03
  2 196 1 4.92395682E+03
  2 197 1 4.92395638E+03
  2 198 1 4.92395596E+03
  2 199 1 4.92395553E+03
  2 200 1 4.92395510E+03
  2 1 200 4.92340647E+03
  2 2 200 4.92340616E+03
  2 3 200 4.92340586E+03
  2 4 200 4.92340556E+03
  2 5 200 4.92340518E+03
  2 6 200 4.92340480E+03
  2 7 200 4.92340441E+03
  2 8 200 4.92340403E+03
  2 9 200 4.92340365E+03
  2 10 200 4.92340326E+03
  2 11 200 4.92340289E+03
  2 12 200 4.92340241E+03
  2 13 200 4.92340193E+03
  2 14 200 4.92340145E+03
  2 15 200 4.92340097E+03
  2 16 200 4.92340049E+03
  2 17 200 4.92340001E+03
  2 18 200 4.92339949E+03
  2 19 200 4.92339894E+03
  2 20 200 4.92339840E+03
  2 21 200 4.92339785E+03
  2 22 200 4.92339731E+03
  2 23 200 4.92339676E+03
  2 24 200 4.92339623E+03
  2 25 200 4.92339569E+03
  2 26 200 4.92339513E+03
  2 27 200 4.92339458E+03
  2 28 200 4.92339403E+03
  2 29 200 4.92339348E+03
  2 30 200 4.92339293E+03
  2 31 200 4.92339241E+03
  2 32 200 4.92339194E+03
  2 33 200 4.92339147E+03
  2 34 200 4.92339100E+03
  2 35 200 4.92339053E+03
  2 36 200 4.92339006E+03
  2 37 200 4.92338958E+03
  2 38 200 4.92338920E+03
  2 39 200 4.92338888E+03
  2 40 200 4.92338855E+03
  2 41 200 4.92338823E+03
  2 42 200 4.92338791E+03
  2 43 200 4.92338759E+03
  2 44 200 4.92338726E+03
  2 45 200 4.92338707E+03
  2 46 200 4.92338690E+03
  2 47 200 4.92338673E+03
  2 48 200 4.92338656E+03
  2 49 200 4.92338639E+03
  2 50 200 4.92338621E+03
  2 51 200 4.92338605E+03
  2 52 200 4.92338597E+03
  2 53 200 4.92338589E+03
  2 54 200 4.92338581E+03
  2 55 200 4.92338573E+03
  2 56 200 4.92338565E+03
  2 57 200 4.92338557E+03
  2 58 200 4.92338550E+03
  2 59 200 4.92338548E+03
  2 60 200 4.92338546E+03
  2 61 200 4.92338544E+03
  2 62 200 4.92338542E+03
  2 63 200 4.92338540E+03
  2 64 200 4.92338538E+03
  2 65 200 4.92338540E+03
  2 66 200 4.92338544E+03
  2 67 200 4.92338547E+03
  2 68 200 4.92338550E+03
  2 69 200 4.92338554E+03
  2 70 200 4.92338557E+03
  2 71 200 4.92338561E+03
  2 72 200 4.92338569E+03
  2 73 200 4.92338577E+03
  2 74 200 4.92338585E+03
  2 75 200 4.92338593E+03
  2 76 200 4.92338601E+03
  2 77 200 4.92338609E+03
  2 78 200 4.92338620E+03
  2 79 200 4.92338632E+03
  2 80 200 4.92338644E+03
  2 81 200 4.92338657E+03
  2 82 200 4.92338669E+03
  2 83 200 4.92338681E+03
  2 84 200 4.92338694E+03
  2 85 200 4.92338713E+03
  2 86 200 4.92338733E+03
  2 87 200 4.92338753E+03
  2 88 200 4.92338773E+03
  2 89 200 4.92338793E+03
  2 90 200 4.92338812E+03
  2 91 200 4.92338835E+03
  2 92 200 4.92338867E+03
  2 93 200 4.92338898E+03
  2 94 200 4.92338930E+03
  2 95 200 4.92338961E+03
  2 96 200 4.92338993E+03
  2 97 200 4.92339024E+03
  2 98 200 4.92339065E+03
  2 99 200 4.92339112E+03
  2 100 200 4.92339158E+03
  2 101 200 4.92339205E+03
  2 102 200 4.92339252E+03
  2 103 200 4.92339299E+03
  2 104 200 4.92339346E+03
  2 105 200 4.92339411E+03
  2 106 200 4.92339478E+03
  2 107 200 4.92339545E+03
  2 108 200 4.92339611E+03
  2 109 200 4.92339678E+03
  2 110 200 4.92339744E+03
  2 111 200 4.92339816E+03
  2 112 200 4.92339906E+03
  2 113 200 4.92339996E+03
  2 114 200 4.92340086E+03
  2 115 200 4.92340176E+03
  2 116 200 4.92340266E+03
  2 117 200 4.92340356E+03
  2 118 200 4.92340466E+03
  2 119 200 4.92340590E+03
  2 120 200 4.92340714E+03
  2 121 200 4.92340838E+03
  2 122 200 4.92340963E+03
  2 123 200 4.92341087E+03
  2 124 200 4.92341210E+03
  2 125 200 4.92341366E+03
  2 126 200 4.92341533E+03
  2 127 200 4.92341700E+03
  2 128 200 4.92341866E+03
  2 129 200 4.92342033E+03
  2 130 200 4.92342200E+03
  2 131 200 4.92342363E+03
  2 132 200 4.92342554E+03
  2 133 200 4.92342745E+03