# File generated by Flopy version 3.8.0 on 02/12/2025 at 19:09:06.
BEGIN options
END options

BEGIN continuous  FILEOUT  w1006-4.csv
  w1006  head  2 100 100
END continuous  FILEOUT  w1006-4.csv

