# File generated by Flopy version 3.8.0 on 06/17/2025 at 11:25:57.
BEGIN options
  SAVE_FLOWS
  NEWTON  UNDER_RELAXATION
END options

BEGIN packages
  DIS6  Riv_ssma_gwf-5.4.dis  dis
  IC6  Riv_ssma_gwf-5.4.ic  ic
  NPF6  Riv_ssma_gwf-5.4.npf  npf
  GHB6  Riv_ssma_gwf-5.4.ghb  ghb-1
  STO6  Riv_ssma_gwf-5.4.sto  sto
  OBS6  Riv_ssma_gwf-5.4.obs  obs_0
  UZF6  Riv_ssma_gwf-5.4.uzf  uzf-1
  OC6  Riv_ssma_gwf-5.4.oc  oc
END packages

