# File generated by Flopy version 3.8.0 on 06/17/2025 at 11:26:53.
BEGIN options
END options

BEGIN griddata
  diffc
    CONSTANT       0.00000000
  alh  LAYERED
    CONSTANT       0.00000000
    CONSTANT       0.50000000
  ath1  LAYERED
    CONSTANT       0.00000000
    CONSTANT       0.40000000
  atv  LAYERED
    CONSTANT       0.00000000
    CONSTANT       0.40000000
END griddata

