# File generated by Flopy version 3.8.0 on 06/17/2025 at 11:26:52.
BEGIN options
  BUDGET  FILEOUT  Riv_ssma_gwf-5.4.cbb
  HEAD  FILEOUT  Riv_ssma_gwf-5.4.hds
END options

BEGIN period  1
  SAVE  HEAD  LAST
  SAVE  BUDGET  ALL
  PRINT  HEAD  LAST
END period  1

