# File generated by Flopy version 3.8.0 on 06/17/2025 at 11:25:59.
BEGIN options
END options

BEGIN griddata
  iconvert
    CONSTANT  3
  ss
    CONSTANT  1.00000000E-07
  sy
    CONSTANT       0.20000000
END griddata

BEGIN period  1
  STEADY-STATE
END period  1

BEGIN period  2
  TRANSIENT
END period  2

