# File generated by Flopy version 3.8.0 on 06/17/2025 at 11:26:53.
BEGIN options
  PRINT_FLOWS
END options

BEGIN sources
  GHB-1  AUX  Concentration
END sources

