# File generated by Flopy version 3.8.0 on 06/17/2025 at 11:26:52.
BEGIN options
  SAVE_FLOWS
END options

BEGIN packages
  DIS6  Riv_ssma-gwt-5.4.dis  dis
  IC6  Riv_ssma-gwt-5.4.ic  ic
  ADV6  Riv_ssma-gwt-5.4.adv  adv
  DSP6  Riv_ssma-gwt-5.4.dsp  dsp-1
  MST6  Riv_ssma-gwt-5.4.mst  mst-1
  SSM6  Riv_ssma-gwt-5.4.ssm  ssm
  UZT6  Riv_ssma-gwt-5.4.uzt  uzf-1
  OC6  Riv_ssma-gwt-5.4.oc  oc
END packages

