# File generated by Flopy version 3.8.0 on 06/17/2025 at 11:25:59.
BEGIN options
END options

BEGIN continuous  FILEOUT  obs-5wells.csv
  w1006  head  2 100 100
  w1001  head  2 101 98
  w1005  head  2 102 100
  w1011  head  2 105 102
  w855-4  head  2 111 121
END continuous  FILEOUT  obs-5wells.csv

