# File generated by Flopy version 3.8.0 on 06/17/2025 at 11:26:53.
BEGIN options
  SCHEME  tvd
END options

