# File generated by Flopy version 3.8.0 on 06/17/2025 at 11:25:59.
BEGIN options
  auxiliary  Concentration
  SAVE_FLOWS
END options

BEGIN dimensions
  MAXBOUND  796
END dimensions

BEGIN period  1
  2 1 1 4.93150000E+03 2.81875000E-01 1.00000000E-01
  2 1 2 4.92941902E+03 1.40937500E-01 1.00000000E-01
  2 1 3 4.92941793E+03 2.81875000E-01 1.00000000E-01
  2 1 4 4.92941574E+03 1.40937500E-01 1.00000000E-01
  2 1 5 4.92941355E+03 2.81875000E-01 1.00000000E-01
  2 1 6 4.92941136E+03 1.40937500E-01 1.00000000E-01
  2 1 7 4.92940917E+03 2.81875000E-01 1.00000000E-01
  2 1 8 4.92940699E+03 1.40937500E-01 1.00000000E-01
  2 1 9 4.92940480E+03 2.81875000E-01 1.00000000E-01
  2 1 10 4.92940261E+03 1.40937500E-01 1.00000000E-01
  2 1 11 4.92940042E+03 2.81875000E-01 1.00000000E-01
  2 1 12 4.92939824E+03 1.40937500E-01 1.00000000E-01
  2 1 13 4.92939605E+03 2.81875000E-01 1.00000000E-01
  2 1 14 4.92939386E+03 1.40937500E-01 1.00000000E-01
  2 1 15 4.92939167E+03 2.81875000E-01 1.00000000E-01
  2 1 16 4.92938948E+03 1.40937500E-01 1.00000000E-01
  2 1 17 4.92938730E+03 2.81875000E-01 1.00000000E-01
  2 1 18 4.92938511E+03 1.40937500E-01 1.00000000E-01
  2 1 19 4.92938292E+03 2.81875000E-01 1.00000000E-01
  2 1 20 4.92938073E+03 1.40937500E-01 1.00000000E-01
  2 1 21 4.92937854E+03 2.81875000E-01 1.00000000E-01
  2 1 22 4.92937636E+03 1.40937500E-01 1.00000000E-01
  2 1 23 4.92937417E+03 2.81875000E-01 1.00000000E-01
  2 1 24 4.92937198E+03 1.40937500E-01 1.00000000E-01
  2 1 25 4.92936979E+03 2.81875000E-01 1.00000000E-01
  2 1 26 4.92936761E+03 1.40937500E-01 1.00000000E-01
  2 1 27 4.92936542E+03 2.81875000E-01 1.00000000E-01
  2 1 28 4.92936323E+03 1.40937500E-01 1.00000000E-01
  2 1 29 4.92936104E+03 2.81875000E-01 1.00000000E-01
  2 1 30 4.92935885E+03 1.40937500E-01 1.00000000E-01
  2 1 31 4.92935667E+03 2.81875000E-01 1.00000000E-01
  2 1 32 4.92935448E+03 1.40937500E-01 1.00000000E-01
  2 1 33 4.92935229E+03 2.81875000E-01 1.00000000E-01
  2 1 34 4.92935010E+03 1.40937500E-01 1.00000000E-01
  2 1 35 4.92934791E+03 2.81875000E-01 1.00000000E-01
  2 1 36 4.92934573E+03 1.40937500E-01 1.00000000E-01
  2 1 37 4.92934354E+03 2.81875000E-01 1.00000000E-01
  2 1 38 4.92934135E+03 1.40937500E-01 1.00000000E-01
  2 1 39 4.92933916E+03 2.81875000E-01 1.00000000E-01
  2 1 40 4.92933698E+03 1.40937500E-01 1.00000000E-01
  2 1 41 4.92933479E+03 2.81875000E-01 1.00000000E-01
  2 1 42 4.92933260E+03 1.40937500E-01 1.00000000E-01
  2 1 43 4.92933041E+03 2.81875000E-01 1.00000000E-01
  2 1 44 4.92932822E+03 1.40937500E-01 1.00000000E-01
  2 1 45 4.92932604E+03 2.81875000E-01 1.00000000E-01
  2 1 46 4.92932385E+03 1.40937500E-01 1.00000000E-01
  2 1 47 4.92932166E+03 2.81875000E-01 1.00000000E-01
  2 1 48 4.92931947E+03 1.40937500E-01 1.00000000E-01
  2 1 49 4.92931728E+03 2.81875000E-01 1.00000000E-01
  2 1 50 4.92931510E+03 1.40937500E-01 1.00000000E-01
  2 1 51 4.92931291E+03 2.81875000E-01 1.00000000E-01
  2 1 52 4.92931072E+03 1.40937500E-01 1.00000000E-01
  2 1 53 4.92930853E+03 2.81875000E-01 1.00000000E-01
  2 1 54 4.92930634E+03 1.40937500E-01 1.00000000E-01
  2 1 55 4.92930416E+03 2.81875000E-01 1.00000000E-01
  2 1 56 4.92930197E+03 1.40937500E-01 1.00000000E-01
  2 1 57 4.92929978E+03 2.81875000E-01 1.00000000E-01
  2 1 58 4.92929759E+03 1.40937500E-01 1.00000000E-01
  2 1 59 4.92929540E+03 2.81875000E-01 1.00000000E-01
  2 1 60 4.92929322E+03 1.40937500E-01 1.00000000E-01
  2 1 61 4.92929103E+03 2.81875000E-01 1.00000000E-01
  2 1 62 4.92928884E+03 1.40937500E-01 1.00000000E-01
  2 1 63 4.92928665E+03 2.81875000E-01 1.00000000E-01
  2 1 64 4.92928446E+03 1.40937500E-01 1.00000000E-01
  2 1 65 4.92928228E+03 2.81875000E-01 1.00000000E-01
  2 1 66 4.92928009E+03 1.40937500E-01 1.00000000E-01
  2 1 67 4.92927790E+03 2.81875000E-01 1.00000000E-01
  2 1 68 4.92927571E+03 1.40937500E-01 1.00000000E-01
  2 1 69 4.92927353E+03 2.81875000E-01 1.00000000E-01
  2 1 70 4.92927134E+03 1.40937500E-01 1.00000000E-01
  2 1 71 4.92926915E+03 2.81875000E-01 1.00000000E-01
  2 1 72 4.92926696E+03 1.40937500E-01 1.00000000E-01
  2 1 73 4.92926477E+03 2.81875000E-01 1.00000000E-01
  2 1 74 4.92926259E+03 1.40937500E-01 1.00000000E-01
  2 1 75 4.92926040E+03 2.81875000E-01 1.00000000E-01
  2 1 76 4.92925821E+03 1.40937500E-01 1.00000000E-01
  2 1 77 4.92925602E+03 2.81875000E-01 1.00000000E-01
  2 1 78 4.92925384E+03 1.40937500E-01 1.00000000E-01
  2 1 79 4.92925165E+03 2.81875000E-01 1.00000000E-01
  2 1 80 4.92924946E+03 1.40937500E-01 1.00000000E-01
  2 1 81 4.92924727E+03 2.81875000E-01 1.00000000E-01
  2 1 82 4.92924508E+03 1.40937500E-01 1.00000000E-01
  2 1 83 4.92924290E+03 2.81875000E-01 1.00000000E-01
  2 1 84 4.92924071E+03 1.40937500E-01 1.00000000E-01
  2 1 85 4.92923852E+03 2.81875000E-01 1.00000000E-01
  2 1 86 4.92923633E+03 1.40937500E-01 1.00000000E-01
  2 1 87 4.92923414E+03 2.81875000E-01 1.00000000E-01
  2 1 88 4.92923196E+03 1.40937500E-01 1.00000000E-01
  2 1 89 4.92922977E+03 2.81875000E-01 1.00000000E-01
  2 1 90 4.92922758E+03 1.40937500E-01 1.00000000E-01
  2 1 91 4.92922539E+03 2.81875000E-01 1.00000000E-01
  2 1 92 4.92922320E+03 1.40937500E-01 1.00000000E-01
  2 1 93 4.92922102E+03 2.81875000E-01 1.00000000E-01
  2 1 94 4.92921883E+03 1.40937500E-01 1.00000000E-01
  2 1 95 4.92921664E+03 2.81875000E-01 1.00000000E-01
  2 1 96 4.92921445E+03 1.40937500E-01 1.00000000E-01
  2 1 97 4.92921227E+03 2.81875000E-01 1.00000000E-01
  2 1 98 4.92921008E+03 1.40937500E-01 1.00000000E-01
  2 1 99 4.92920789E+03 2.81875000E-01 1.00000000E-01
  2 1 100 4.92920570E+03 1.40937500E-01 1.00000000E-01
  2 1 101 4.92920351E+03 2.81875000E-01 1.00000000E-01
  2 1 102 4.92920133E+03 1.40937500E-01 1.00000000E-01
  2 1 103 4.92919914E+03 2.81875000E-01 1.00000000E-01
  2 1 104 4.92919695E+03 1.40937500E-01 1.00000000E-01
  2 1 105 4.92919476E+03 2.81875000E-01 1.00000000E-01
  2 1 106 4.92919257E+03 1.40937500E-01 1.00000000E-01
  2 1 107 4.92919039E+03 2.81875000E-01 1.00000000E-01
  2 1 108 4.92918820E+03 1.40937500E-01 1.00000000E-01
  2 1 109 4.92918601E+03 2.81875000E-01 1.00000000E-01
  2 1 110 4.92918382E+03 1.40937500E-01 1.00000000E-01
  2 1 111 4.92918163E+03 2.81875000E-01 1.00000000E-01
  2 1 112 4.92917945E+03 1.40937500E-01 1.00000000E-01
  2 1 113 4.92917726E+03 2.81875000E-01 1.00000000E-01
  2 1 114 4.92917507E+03 1.40937500E-01 1.00000000E-01
  2 1 115 4.92917288E+03 2.81875000E-01 1.00000000E-01
  2 1 116 4.92917069E+03 1.40937500E-01 1.00000000E-01
  2 1 117 4.92916851E+03 2.81875000E-01 1.00000000E-01
  2 1 118 4.92916632E+03 1.40937500E-01 1.00000000E-01
  2 1 119 4.92916413E+03 2.81875000E-01 1.00000000E-01
  2 1 120 4.92916194E+03 1.40937500E-01 1.00000000E-01
  2 1 121 4.92915976E+03 2.81875000E-01 1.00000000E-01
  2 1 122 4.92915757E+03 1.40937500E-01 1.00000000E-01
  2 1 123 4.92915538E+03 2.81875000E-01 1.00000000E-01
  2 1 124 4.92915319E+03 1.40937500E-01 1.00000000E-01
  2 1 125 4.92915100E+03 2.81875000E-01 1.00000000E-01
  2 1 126 4.92914882E+03 1.40937500E-01 1.00000000E-01
  2 1 127 4.92914663E+03 2.81875000E-01 1.00000000E-01
  2 1 128 4.92914444E+03 1.40937500E-01 1.00000000E-01
  2 1 129 4.92914225E+03 2.81875000E-01 1.00000000E-01
  2 1 130 4.92914006E+03 1.40937500E-01 1.00000000E-01
  2 1 131 4.92913788E+03 2.81875000E-01 1.00000000E-01
  2 1 132 4.92913569E+03 1.40937500E-01 1.00000000E-01
  2 1 133 4.92913350E+03 2.81875000E-01 1.00000000E-01
  2 1 134 4.92913131E+03 1.40937500E-01 1.00000000E-01
  2 1 135 4.92912913E+03 2.81875000E-01 1.00000000E-01
  2 1 136 4.92912694E+03 1.40937500E-01 1.00000000E-01
  2 1 137 4.92912475E+03 2.81875000E-01 1.00000000E-01
  2 1 138 4.92912256E+03 1.40937500E-01 1.00000000E-01
  2 1 139 4.92912037E+03 2.81875000E-01 1.00000000E-01
  2 1 140 4.92911819E+03 1.40937500E-01 1.00000000E-01
  2 1 141 4.92911600E+03 2.81875000E-01 1.00000000E-01
  2 1 142 4.92911381E+03 1.40937500E-01 1.00000000E-01
  2 1 143 4.92911162E+03 2.81875000E-01 1.00000000E-01
  2 1 144 4.92910943E+03 1.40937500E-01 1.00000000E-01
  2 1 145 4.92910725E+03 2.81875000E-01 1.00000000E-01
  2 1 146 4.92910506E+03 1.40937500E-01 1.00000000E-01
  2 1 147 4.92910287E+03 2.81875000E-01 1.00000000E-01
  2 1 148 4.92910068E+03 1.40937500E-01 1.00000000E-01
  2 1 149 4.92909850E+03 2.81875000E-01 1.00000000E-01
  2 1 150 4.92909631E+03 1.40937500E-01 1.00000000E-01
  2 1 151 4.92909412E+03 2.81875000E-01 1.00000000E-01
  2 1 152 4.92909193E+03 1.40937500E-01 1.00000000E-01
  2 1 153 4.92908974E+03 2.81875000E-01 1.00000000E-01
  2 1 154 4.92908756E+03 1.40937500E-01 1.00000000E-01
  2 1 155 4.92908537E+03 2.81875000E-01 1.00000000E-01
  2 1 156 4.92908318E+03 1.40937500E-01 1.00000000E-01
  2 1 157 4.92908099E+03 2.81875000E-01 1.00000000E-01
  2 1 158 4.92907880E+03 1.40937500E-01 1.00000000E-01
  2 1 159 4.92907662E+03 2.81875000E-01 1.00000000E-01
  2 1 160 4.92907443E+03 1.40937500E-01 1.00000000E-01
  2 1 161 4.92907224E+03 2.81875000E-01 1.00000000E-01
  2 1 162 4.92907005E+03 1.40937500E-01 1.00000000E-01
  2 1 163 4.92906786E+03 2.81875000E-01 1.00000000E-01
  2 1 164 4.92906568E+03 1.40937500E-01 1.00000000E-01
  2 1 165 4.92906349E+03 2.81875000E-01 1.00000000E-01
  2 1 166 4.92906130E+03 1.40937500E-01 1.00000000E-01
  2 1 167 4.92905911E+03 2.81875000E-01 1.00000000E-01
  2 1 168 4.92905692E+03 1.40937500E-01 1.00000000E-01
  2 1 169 4.92905474E+03 2.81875000E-01 1.00000000E-01
  2 1 170 4.92905255E+03 1.40937500E-01 1.00000000E-01
  2 1 171 4.92905036E+03 2.81875000E-01 1.00000000E-01
  2 1 172 4.92904817E+03 1.40937500E-01 1.00000000E-01
  2 1 173 4.92904598E+03 2.81875000E-01 1.00000000E-01
  2 1 174 4.92904380E+03 1.40937500E-01 1.00000000E-01
  2 1 175 4.92904161E+03 2.81875000E-01 1.00000000E-01
  2 1 176 4.92903942E+03 1.40937500E-01 1.00000000E-01
  2 1 177 4.92903723E+03 2.81875000E-01 1.00000000E-01
  2 1 178 4.92903505E+03 1.40937500E-01 1.00000000E-01
  2 1 179 4.92903286E+03 2.81875000E-01 1.00000000E-01
  2 1 180 4.92903067E+03 1.40937500E-01 1.00000000E-01
  2 1 181 4.92902848E+03 2.81875000E-01 1.00000000E-01
  2 1 182 4.92902629E+03 1.40937500E-01 1.00000000E-01
  2 1 183 4.92902411E+03 2.81875000E-01 1.00000000E-01
  2 1 184 4.92902192E+03 1.40937500E-01 1.00000000E-01
  2 1 185 4.92901973E+03 2.81875000E-01 1.00000000E-01
  2 1 186 4.92901754E+03 1.40937500E-01 1.00000000E-01
  2 1 187 4.92901536E+03 2.81875000E-01 1.00000000E-01
  2 1 188 4.92901317E+03 1.40937500E-01 1.00000000E-01
  2 1 189 4.92901098E+03 2.81875000E-01 1.00000000E-01
  2 1 190 4.92900879E+03 1.40937500E-01 1.00000000E-01
  2 1 191 4.92900660E+03 2.81875000E-01 1.00000000E-01
  2 1 192 4.92900442E+03 1.40937500E-01 1.00000000E-01
  2 1 193 4.92900223E+03 2.81875000E-01 1.00000000E-01
  2 1 194 4.92900004E+03 1.40937500E-01 1.00000000E-01
  2 1 195 4.92899785E+03 2.81875000E-01 1.00000000E-01
  2 1 196 4.92899566E+03 1.40937500E-01 1.00000000E-01
  2 1 197 4.92899348E+03 2.81875000E-01 1.00000000E-01
  2 1 198 4.92899129E+03 1.40937500E-01 1.00000000E-01
  2 1 199 4.92899010E+03 1.40937500E-01 1.00000000E-01
  2 1 200 4.92436500E+03 1.40937500E-01 1.00000000E-01
  2 2 1 4.93360897E+03 1.48355300E-01 1.00000000E-01
  2 3 1 4.93360581E+03 1.48355300E-01 1.00000000E-01
  2 4 1 4.93359950E+03 2.96710500E-01 1.00000000E-01
  2 5 1 4.93359319E+03 1.48355300E-01 1.00000000E-01
  2 6 1 4.93358688E+03 2.96710500E-01 1.00000000E-01
  2 7 1 4.93358057E+03 1.48355300E-01 1.00000000E-01
  2 8 1 4.93357426E+03 2.96710500E-01 1.00000000E-01
  2 9 1 4.93356796E+03 1.48355300E-01 1.00000000E-01
  2 10 1 4.93356165E+03 2.96710500E-01 1.00000000E-01
  2 11 1 4.93355534E+03 1.48355300E-01 1.00000000E-01
  2 12 1 4.93354903E+03 2.96710500E-01 1.00000000E-01
  2 13 1 4.93354272E+03 1.48355300E-01 1.00000000E-01
  2 14 1 4.93353641E+03 2.96710500E-01 1.00000000E-01
  2 15 1 4.93353010E+03 1.48355300E-01 1.00000000E-01
  2 16 1 4.93352379E+03 2.96710500E-01 1.00000000E-01
  2 17 1 4.93351748E+03 1.48355300E-01 1.00000000E-01
  2 18 1 4.93351117E+03 2.96710500E-01 1.00000000E-01
  2 19 1 4.93350486E+03 1.48355300E-01 1.00000000E-01
  2 20 1 4.93349855E+03 2.96710500E-01 1.00000000E-01
  2 21 1 4.93349224E+03 1.48355300E-01 1.00000000E-01
  2 22 1 4.93348593E+03 2.96710500E-01 1.00000000E-01
  2 23 1 4.93347962E+03 1.48355300E-01 1.00000000E-01
  2 24 1 4.93347332E+03 2.96710500E-01 1.00000000E-01
  2 25 1 4.93346701E+03 1.48355300E-01 1.00000000E-01
  2 26 1 4.93346070E+03 2.96710500E-01 1.00000000E-01
  2 27 1 4.93345439E+03 1.48355300E-01 1.00000000E-01
  2 28 1 4.93344808E+03 2.96710500E-01 1.00000000E-01
  2 29 1 4.93344177E+03 1.48355300E-01 1.00000000E-01
  2 30 1 4.93343546E+03 2.96710500E-01 1.00000000E-01
  2 31 1 4.93342915E+03 1.48355300E-01 1.00000000E-01
  2 32 1 4.93342284E+03 2.96710500E-01 1.00000000E-01
  2 33 1 4.93341653E+03 1.48355300E-01 1.00000000E-01
  2 34 1 4.93341022E+03 2.96710500E-01 1.00000000E-01
  2 35 1 4.93340391E+03 1.48355300E-01 1.00000000E-01
  2 36 1 4.93339761E+03 2.96710500E-01 1.00000000E-01
  2 37 1 4.93339130E+03 1.48355300E-01 1.00000000E-01
  2 38 1 4.93338499E+03 2.96710500E-01 1.00000000E-01
  2 39 1 4.93337868E+03 1.48355300E-01 1.00000000E-01
  2 40 1 4.93337237E+03 2.96710500E-01 1.00000000E-01
  2 41 1 4.93336606E+03 1.48355300E-01 1.00000000E-01
  2 42 1 4.93335975E+03 2.96710500E-01 1.00000000E-01
  2 43 1 4.93335344E+03 1.48355300E-01 1.00000000E-01
  2 44 1 4.93334713E+03 2.96710500E-01 1.00000000E-01
  2 45 1 4.93334082E+03 1.48355300E-01 1.00000000E-01
  2 46 1 4.93333451E+03 2.96710500E-01 1.00000000E-01
  2 47 1 4.93332820E+03 1.48355300E-01 1.00000000E-01
  2 48 1 4.93332189E+03 2.96710500E-01 1.00000000E-01
  2 49 1 4.93331558E+03 1.48355300E-01 1.00000000E-01
  2 50 1 4.93330927E+03 2.96710500E-01 1.00000000E-01
  2 51 1 4.93330297E+03 1.48355300E-01 1.00000000E-01
  2 52 1 4.93329666E+03 2.96710500E-01 1.00000000E-01
  2 53 1 4.93329035E+03 1.48355300E-01 1.00000000E-01
  2 54 1 4.93328404E+03 2.96710500E-01 1.00000000E-01
  2 55 1 4.93327773E+03 1.48355300E-01 1.00000000E-01
  2 56 1 4.93327142E+03 2.96710500E-01 1.00000000E-01
  2 57 1 4.93326511E+03 1.48355300E-01 1.00000000E-01
  2 58 1 4.93325880E+03 2.96710500E-01 1.00000000E-01
  2 59 1 4.93325249E+03 1.48355300E-01 1.00000000E-01
  2 60 1 4.93324618E+03 2.96710500E-01 1.00000000E-01
  2 61 1 4.93323987E+03 1.48355300E-01 1.00000000E-01
  2 62 1 4.93323356E+03 2.96710500E-01 1.00000000E-01
  2 63 1 4.93322725E+03 1.48355300E-01 1.00000000E-01
  2 64 1 4.93322095E+03 2.96710500E-01 1.00000000E-01
  2 65 1 4.93321464E+03 1.48355300E-01 1.00000000E-01
  2 66 1 4.93320833E+03 2.96710500E-01 1.00000000E-01
  2 67 1 4.93320202E+03 1.48355300E-01 1.00000000E-01
  2 68 1 4.93319571E+03 2.96710500E-01 1.00000000E-01
  2 69 1 4.93318940E+03 1.48355300E-01 1.00000000E-01
  2 70 1 4.93318309E+03 2.96710500E-01 1.00000000E-01
  2 71 1 4.93317678E+03 1.48355300E-01 1.00000000E-01
  2 72 1 4.93317047E+03 2.96710500E-01 1.00000000E-01
  2 73 1 4.93316416E+03 1.48355300E-01 1.00000000E-01
  2 74 1 4.93315785E+03 2.96710500E-01 1.00000000E-01
  2 75 1 4.93315154E+03 1.48355300E-01 1.00000000E-01
  2 76 1 4.93314523E+03 2.96710500E-01 1.00000000E-01
  2 77 1 4.93313893E+03 1.48355300E-01 1.00000000E-01
  2 78 1 4.93313262E+03 2.96710500E-01 1.00000000E-01
  2 79 1 4.93312631E+03 1.48355300E-01 1.00000000E-01
  2 80 1 4.93312000E+03 2.96710500E-01 1.00000000E-01
  2 81 1 4.93311369E+03 1.48355300E-01 1.00000000E-01
  2 82 1 4.93310738E+03 2.96710500E-01 1.00000000E-01
  2 83 1 4.93310107E+03 1.48355300E-01 1.00000000E-01
  2 84 1 4.93309476E+03 2.96710500E-01 1.00000000E-01
  2 85 1 4.93308845E+03 1.48355300E-01 1.00000000E-01
  2 86 1 4.93308214E+03 2.96710500E-01 1.00000000E-01
  2 87 1 4.93307583E+03 1.48355300E-01 1.00000000E-01
  2 88 1 4.93306952E+03 2.96710500E-01 1.00000000E-01
  2 89 1 4.93306321E+03 1.48355300E-01 1.00000000E-01
  2 90 1 4.93305691E+03 2.96710500E-01 1.00000000E-01
  2 91 1 4.93305059E+03 1.48355300E-01 1.00000000E-01
  2 92 1 4.93304429E+03 2.96710500E-01 1.00000000E-01
  2 93 1 4.93303798E+03 1.48355300E-01 1.00000000E-01
  2 94 1 4.93303167E+03 2.96710500E-01 1.00000000E-01
  2 95 1 4.93302536E+03 1.48355300E-01 1.00000000E-01
  2 96 1 4.93301905E+03 2.96710500E-01 1.00000000E-01
  2 97 1 4.93301274E+03 1.48355300E-01 1.00000000E-01
  2 98 1 4.93300643E+03 2.96710500E-01 1.00000000E-01
  2 99 1 4.93300012E+03 1.48355300E-01 1.00000000E-01
  2 100 1 4.93299381E+03 2.96710500E-01 1.00000000E-01
  2 101 1 4.93298750E+03 1.48355300E-01 1.00000000E-01
  2 102 1 4.93298119E+03 2.96710500E-01 1.00000000E-01
  2 103 1 4.93297488E+03 1.48355300E-01 1.00000000E-01
  2 104 1 4.93296857E+03 2.96710500E-01 1.00000000E-01
  2 105 1 4.93296227E+03 1.48355300E-01 1.00000000E-01
  2 106 1 4.93295596E+03 2.96710500E-01 1.00000000E-01
  2 107 1 4.93294965E+03 1.48355300E-01 1.00000000E-01
  2 108 1 4.93294334E+03 2.96710500E-01 1.00000000E-01
  2 109 1 4.93293703E+03 1.48355300E-01 1.00000000E-01
  2 110 1 4.93293072E+03 2.96710500E-01 1.00000000E-01
  2 111 1 4.93292441E+03 1.48355300E-01 1.00000000E-01
  2 112 1 4.93291810E+03 2.96710500E-01 1.00000000E-01
  2 113 1 4.93291179E+03 1.48355300E-01 1.00000000E-01
  2 114 1 4.93290548E+03 2.96710500E-01 1.00000000E-01
  2 115 1 4.93289917E+03 1.48355300E-01 1.00000000E-01
  2 116 1 4.93289286E+03 2.96710500E-01 1.00000000E-01
  2 117 1 4.93288655E+03 1.48355300E-01 1.00000000E-01
  2 118 1 4.93288025E+03 2.96710500E-01 1.00000000E-01
  2 119 1 4.93287394E+03 1.48355300E-01 1.00000000E-01
  2 120 1 4.93286763E+03 2.96710500E-01 1.00000000E-01
  2 121 1 4.93286132E+03 1.48355300E-01 1.00000000E-01
  2 122 1 4.93285501E+03 2.96710500E-01 1.00000000E-01
  2 123 1 4.93284870E+03 1.48355300E-01 1.00000000E-01
  2 124 1 4.93284239E+03 2.96710500E-01 1.00000000E-01
  2 125 1 4.93283608E+03 1.48355300E-01 1.00000000E-01
  2 126 1 4.93282977E+03 2.96710500E-01 1.00000000E-01
  2 127 1 4.93282346E+03 1.48355300E-01 1.00000000E-01
  2 128 1 4.93281715E+03 2.96710500E-01 1.00000000E-01
  2 129 1 4.93281084E+03 1.48355300E-01 1.00000000E-01
  2 130 1 4.93280453E+03 2.96710500E-01 1.00000000E-01
  2 131 1 4.93279822E+03 1.48355300E-01 1.00000000E-01
  2 132 1 4.93279191E+03 2.96710500E-01 1.00000000E-01
  2 133 1 4.93278561E+03 1.48355300E-01 1.00000000E-01
  2 134 1 4.93277930E+03 2.96710500E-01 1.00000000E-01
  2 135 1 4.93277299E+03 1.48355300E-01 1.00000000E-01
  2 136 1 4.93276668E+03 2.96710500E-01 1.00000000E-01
  2 137 1 4.93276037E+03 1.48355300E-01 1.00000000E-01
  2 138 1 4.93275406E+03 2.96710500E-01 1.00000000E-01
  2 139 1 4.93274775E+03 1.48355300E-01 1.00000000E-01
  2 140 1 4.93274144E+03 2.96710500E-01 1.00000000E-01
  2 141 1 4.93273513E+03 1.48355300E-01 1.00000000E-01
  2 142 1 4.93272882E+03 2.96710500E-01 1.00000000E-01
  2 143 1 4.93272251E+03 1.48355300E-01 1.00000000E-01
  2 144 1 4.93271620E+03 2.96710500E-01 1.00000000E-01
  2 145 1 4.93270989E+03 1.48355300E-01 1.00000000E-01
  2 146 1 4.93270359E+03 2.96710500E-01 1.00000000E-01
  2 147 1 4.93269728E+03 1.48355300E-01 1.00000000E-01
  2 148 1 4.93269097E+03 2.96710500E-01 1.00000000E-01
  2 149 1 4.93268466E+03 1.48355300E-01 1.00000000E-01
  2 150 1 4.93267835E+03 2.96710500E-01 1.00000000E-01
  2 151 1 4.93267204E+03 1.48355300E-01 1.00000000E-01
  2 152 1 4.93266573E+03 2.96710500E-01 1.00000000E-01
  2 153 1 4.93265942E+03 1.48355300E-01 1.00000000E-01
  2 154 1 4.93265311E+03 2.96710500E-01 1.00000000E-01
  2 155 1 4.93264680E+03 1.48355300E-01 1.00000000E-01
  2 156 1 4.93264049E+03 2.96710500E-01 1.00000000E-01
  2 157 1 4.93263418E+03 1.48355300E-01 1.00000000E-01
  2 158 1 4.93262787E+03 2.96710500E-01 1.00000000E-01
  2 159 1 4.93262157E+03 1.48355300E-01 1.00000000E-01
  2 160 1 4.93261526E+03 2.96710500E-01 1.00000000E-01
  2 161 1 4.93260895E+03 1.48355300E-01 1.00000000E-01
  2 162 1 4.93260264E+03 2.96710500E-01 1.00000000E-01
  2 163 1 4.93259633E+03 1.48355300E-01 1.00000000E-01
  2 164 1 4.93259002E+03 2.96710500E-01 1.00000000E-01
  2 165 1 4.93258371E+03 1.48355300E-01 1.00000000E-01
  2 166 1 4.93257740E+03 2.96710500E-01 1.00000000E-01
  2 167 1 4.93257109E+03 1.48355300E-01 1.00000000E-01
  2 168 1 4.93256478E+03 2.96710500E-01 1.00000000E-01
  2 169 1 4.93255847E+03 1.48355300E-01 1.00000000E-01
  2 170 1 4.93255216E+03 2.96710500E-01 1.00000000E-01
  2 171 1 4.93254585E+03 1.48355300E-01 1.00000000E-01
  2 172 1 4.93253954E+03 2.96710500E-01 1.00000000E-01
  2 173 1 4.93253323E+03 1.48355300E-01 1.00000000E-01
  2 174 1 4.93252693E+03 2.96710500E-01 1.00000000E-01
  2 175 1 4.93252062E+03 1.48355300E-01 1.00000000E-01
  2 176 1 4.93251431E+03 2.96710500E-01 1.00000000E-01
  2 177 1 4.93250800E+03 1.48355300E-01 1.00000000E-01
  2 178 1 4.93250169E+03 2.96710500E-01 1.00000000E-01
  2 179 1 4.93249538E+03 1.48355300E-01 1.00000000E-01
  2 180 1 4.93248907E+03 2.96710500E-01 1.00000000E-01
  2 181 1 4.93248276E+03 1.48355300E-01 1.00000000E-01
  2 182 1 4.93247645E+03 2.96710500E-01 1.00000000E-01
  2 183 1 4.93247014E+03 1.48355300E-01 1.00000000E-01
  2 184 1 4.93246383E+03 2.96710500E-01 1.00000000E-01
  2 185 1 4.93245752E+03 1.48355300E-01 1.00000000E-01
  2 186 1 4.93245122E+03 2.96710500E-01 1.00000000E-01
  2 187 1 4.93244491E+03 1.48355300E-01 1.00000000E-01
  2 188 1 4.93243860E+03 2.96710500E-01 1.00000000E-01
  2 189 1 4.93243229E+03 1.48355300E-01 1.00000000E-01
  2 190 1 4.93242598E+03 2.96710500E-01 1.00000000E-01
  2 191 1 4.93241967E+03 1.48355300E-01 1.00000000E-01
  2 192 1 4.93241336E+03 2.96710500E-01 1.00000000E-01
  2 193 1 4.93240705E+03 1.48355300E-01 1.00000000E-01
  2 194 1 4.93240074E+03 2.96710500E-01 1.00000000E-01
  2 195 1 4.93239443E+03 1.48355300E-01 1.00000000E-01
  2 196 1 4.93238812E+03 2.96710500E-01 1.00000000E-01
  2 197 1 4.93238181E+03 1.48355300E-01 1.00000000E-01
  2 198 1 4.93237550E+03 2.96710500E-01 1.00000000E-01
  2 199 1 4.93237118E+03 1.48355300E-01 1.00000000E-01
  2 200 1 4.92818000E+03 2.96710500E-01 1.00000000E-01
  2 200 2 4.92399959E+03 1.12750000E+00 1.00000000E-01
  2 200 3 4.92399913E+03 2.25500000E+00 1.00000000E-01
  2 200 4 4.92399822E+03 1.12750000E+00 1.00000000E-01
  2 200 5 4.92399730E+03 2.25500000E+00 1.00000000E-01
  2 200 6 4.92399639E+03 1.12750000E+00 1.00000000E-01
  2 200 7 4.92399547E+03 2.25500000E+00 1.00000000E-01
  2 200 8 4.92399456E+03 1.12750000E+00 1.00000000E-01
  2 200 9 4.92399365E+03 2.25500000E+00 1.00000000E-01
  2 200 10 4.92399273E+03 1.12750000E+00 1.00000000E-01
  2 200 11 4.92399182E+03 2.25500000E+00 1.00000000E-01
  2 200 12 4.92399090E+03 1.12750000E+00 1.00000000E-01
  2 200 13 4.92398999E+03 2.25500000E+00 1.00000000E-01
  2 200 14 4.92398907E+03 1.12750000E+00 1.00000000E-01
  2 200 15 4.92398816E+03 2.25500000E+00 1.00000000E-01
  2 200 16 4.92398724E+03 1.12750000E+00 1.00000000E-01
  2 200 17 4.92398633E+03 2.25500000E+00 1.00000000E-01
  2 200 18 4.92398542E+03 1.12750000E+00 1.00000000E-01
  2 200 19 4.92398450E+03 2.25500000E+00 1.00000000E-01
  2 200 20 4.92398359E+03 1.12750000E+00 1.00000000E-01
  2 200 21 4.92398267E+03 2.25500000E+00 1.00000000E-01
  2 200 22 4.92398176E+03 1.12750000E+00 1.00000000E-01
  2 200 23 4.92398084E+03 2.25500000E+00 1.00000000E-01
  2 200 24 4.92397993E+03 1.12750000E+00 1.00000000E-01
  2 200 25 4.92397901E+03 2.25500000E+00 1.00000000E-01
  2 200 26 4.92397810E+03 1.12750000E+00 1.00000000E-01
  2 200 27 4.92397718E+03 2.25500000E+00 1.00000000E-01
  2 200 28 4.92397627E+03 1.12750000E+00 1.00000000E-01
  2 200 29 4.92397535E+03 2.25500000E+00 1.00000000E-01
  2 200 30 4.92397444E+03 1.12750000E+00 1.00000000E-01
  2 200 31 4.92397353E+03 2.25500000E+00 1.00000000E-01
  2 200 32 4.92397261E+03 1.12750000E+00 1.00000000E-01
  2 200 33 4.92397170E+03 2.25500000E+00 1.00000000E-01
  2 200 34 4.92397078E+03 1.12750000E+00 1.00000000E-01
  2 200 35 4.92396987E+03 2.25500000E+00 1.00000000E-01
  2 200 36 4.92396895E+03 1.12750000E+00 1.00000000E-01
  2 200 37 4.92396804E+03 2.25500000E+00 1.00000000E-01
  2 200 38 4.92396712E+03 1.12750000E+00 1.00000000E-01
  2 200 39 4.92396621E+03 2.25500000E+00 1.00000000E-01
  2 200 40 4.92396529E+03 1.12750000E+00 1.00000000E-01
  2 200 41 4.92396438E+03 2.25500000E+00 1.00000000E-01
  2 200 42 4.92396347E+03 1.12750000E+00 1.00000000E-01
  2 200 43 4.92396255E+03 2.25500000E+00 1.00000000E-01
  2 200 44 4.92396164E+03 1.12750000E+00 1.00000000E-01
  2 200 45 4.92396072E+03 2.25500000E+00 1.00000000E-01
  2 200 46 4.92395981E+03 1.12750000E+00 1.00000000E-01
  2 200 47 4.92395889E+03 2.25500000E+00 1.00000000E-01
  2 200 48 4.92395798E+03 1.12750000E+00 1.00000000E-01
  2 200 49 4.92395706E+03 2.25500000E+00 1.00000000E-01
  2 200 50 4.92395615E+03 1.12750000E+00 1.00000000E-01
  2 200 51 4.92395524E+03 2.25500000E+00 1.00000000E-01
  2 200 52 4.92395432E+03 1.12750000E+00 1.00000000E-01
  2 200 53 4.92395341E+03 2.25500000E+00 1.00000000E-01
  2 200 54 4.92395249E+03 1.12750000E+00 1.00000000E-01
  2 200 55 4.92395158E+03 2.25500000E+00 1.00000000E-01
  2 200 56 4.92395066E+03 1.12750000E+00 1.00000000E-01
  2 200 57 4.92394975E+03 2.25500000E+00 1.00000000E-01
  2 200 58 4.92394883E+03 1.12750000E+00 1.00000000E-01
  2 200 59 4.92394792E+03 2.25500000E+00 1.00000000E-01
  2 200 60 4.92394700E+03 1.12750000E+00 1.00000000E-01
  2 200 61 4.92394609E+03 2.25500000E+00 1.00000000E-01
  2 200 62 4.92394517E+03 1.12750000E+00 1.00000000E-01
  2 200 63 4.92394426E+03 2.25500000E+00 1.00000000E-01
  2 200 64 4.92394335E+03 1.12750000E+00 1.00000000E-01
  2 200 65 4.92394243E+03 2.25500000E+00 1.00000000E-01
  2 200 66 4.92394152E+03 1.12750000E+00 1.00000000E-01
  2 200 67 4.92394060E+03 2.25500000E+00 1.00000000E-01
  2 200 68 4.92393969E+03 1.12750000E+00 1.00000000E-01
  2 200 69 4.92393877E+03 2.25500000E+00 1.00000000E-01
  2 200 70 4.92393786E+03 1.12750000E+00 1.00000000E-01
  2 200 71 4.92393695E+03 2.25500000E+00 1.00000000E-01
  2 200 72 4.92393603E+03 1.12750000E+00 1.00000000E-01
  2 200 73 4.92393512E+03 2.25500000E+00 1.00000000E-01
  2 200 74 4.92393420E+03 1.12750000E+00 1.00000000E-01
  2 200 75 4.92393329E+03 2.25500000E+00 1.00000000E-01
  2 200 76 4.92393237E+03 1.12750000E+00 1.00000000E-01
  2 200 77 4.92393146E+03 2.25500000E+00 1.00000000E-01
  2 200 78 4.92393054E+03 1.12750000E+00 1.00000000E-01
  2 200 79 4.92392963E+03 2.25500000E+00 1.00000000E-01
  2 200 80 4.92392871E+03 1.12750000E+00 1.00000000E-01
  2 200 81 4.92392780E+03 2.25500000E+00 1.00000000E-01
  2 200 82 4.92392688E+03 1.12750000E+00 1.00000000E-01
  2 200 83 4.92392597E+03 2.25500000E+00 1.00000000E-01
  2 200 84 4.92392506E+03 1.12750000E+00 1.00000000E-01
  2 200 85 4.92392414E+03 2.25500000E+00 1.00000000E-01
  2 200 86 4.92392323E+03 1.12750000E+00 1.00000000E-01
  2 200 87 4.92392231E+03 2.25500000E+00 1.00000000E-01
  2 200 88 4.92392140E+03 1.12750000E+00 1.00000000E-01
  2 200 89 4.92392048E+03 2.25500000E+00 1.00000000E-01
  2 200 90 4.92391957E+03 1.12750000E+00 1.00000000E-01
  2 200 91 4.92391865E+03 2.25500000E+00 1.00000000E-01
  2 200 92 4.92391774E+03 1.12750000E+00 1.00000000E-01
  2 200 93 4.92391683E+03 2.25500000E+00 1.00000000E-01
  2 200 94 4.92391591E+03 1.12750000E+00 1.00000000E-01
  2 200 95 4.92391500E+03 2.25500000E+00 1.00000000E-01
  2 200 96 4.92391408E+03 1.12750000E+00 1.00000000E-01
  2 200 97 4.92391317E+03 2.25500000E+00 1.00000000E-01
  2 200 98 4.92391225E+03 1.12750000E+00 1.00000000E-01
  2 200 99 4.92391134E+03 2.25500000E+00 1.00000000E-01
  2 200 100 4.92391042E+03 1.12750000E+00 1.00000000E-01
  2 200 101 4.92390951E+03 2.25500000E+00 1.00000000E-01
  2 200 102 4.92390859E+03 1.12750000E+00 1.00000000E-01
  2 200 103 4.92390768E+03 2.25500000E+00 1.00000000E-01
  2 200 104 4.92390676E+03 1.12750000E+00 1.00000000E-01
  2 200 105 4.92390585E+03 2.25500000E+00 1.00000000E-01
  2 200 106 4.92390494E+03 1.12750000E+00 1.00000000E-01
  2 200 107 4.92390402E+03 2.25500000E+00 1.00000000E-01
  2 200 108 4.92390311E+03 1.12750000E+00 1.00000000E-01
  2 200 109 4.92390219E+03 2.25500000E+00 1.00000000E-01
  2 200 110 4.92390128E+03 1.12750000E+00 1.00000000E-01
  2 200 111 4.92390036E+03 2.25500000E+00 1.00000000E-01
  2 200 112 4.92389945E+03 1.12750000E+00 1.00000000E-01
  2 200 113 4.92389853E+03 2.25500000E+00 1.00000000E-01
  2 200 114 4.92389762E+03 1.12750000E+00 1.00000000E-01
  2 200 115 4.92389671E+03 2.25500000E+00 1.00000000E-01
  2 200 116 4.92389579E+03 1.12750000E+00 1.00000000E-01
  2 200 117 4.92389488E+03 2.25500000E+00 1.00000000E-01
  2 200 118 4.92389396E+03 1.12750000E+00 1.00000000E-01
  2 200 119 4.92389305E+03 2.25500000E+00 1.00000000E-01
  2 200 120 4.92389213E+03 1.12750000E+00 1.00000000E-01
  2 200 121 4.92389122E+03 2.25500000E+00 1.00000000E-01
  2 200 122 4.92389030E+03 1.12750000E+00 1.00000000E-01
  2 200 123 4.92388939E+03 2.25500000E+00 1.00000000E-01
  2 200 124 4.92388847E+03 1.12750000E+00 1.00000000E-01
  2 200 125 4.92388756E+03 2.25500000E+00 1.00000000E-01
  2 200 126 4.92388664E+03 1.12750000E+00 1.00000000E-01
  2 200 127 4.92388573E+03 2.25500000E+00 1.00000000E-01
  2 200 128 4.92388482E+03 1.12750000E+00 1.00000000E-01
  2 200 129 4.92388390E+03 2.25500000E+00 1.00000000E-01
  2 200 130 4.92388299E+03 1.12750000E+00 1.00000000E-01
  2 200 131 4.92388207E+03 2.25500000E+00 1.00000000E-01
  2 200 132 4.92388116E+03 1.12750000E+00 1.00000000E-01
  2 200 133 4.92388024E+03 2.25500000E+00 1.00000000E-01
  2 200 134 4.92387933E+03 1.12750000E+00 1.00000000E-01