# File generated by Flopy version 3.8.0 on 06/17/2025 at 11:25:58.
BEGIN options
END options

BEGIN griddata
  strt  LAYERED
    CONSTANT    4926.80000000
    CONSTANT    4926.80000000
END griddata

