# File generated by Flopy version 3.8.0 on 06/17/2025 at 11:27:09.
BEGIN options
  BUDGET  FILEOUT  Riv_ssma-gwt-5.4.cbc
  CONCENTRATION  FILEOUT  Riv_ssma-gwt-5.4.ucn
  CONCENTRATION  PRINT_FORMAT  COLUMNS  11  WIDTH  15  DIGITS  6  GENERAL
END options

BEGIN period  1
  SAVE  CONCENTRATION  ALL
  PRINT  CONCENTRATION  LAST
  PRINT  BUDGET  ALL
END period  1

