# File generated by Flopy version 3.8.0 on 06/17/2025 at 11:26:53.
BEGIN options
END options

BEGIN griddata
  strt
    CONSTANT       0.10000000
END griddata

