# File generated by Flopy version 3.8.0 on 10/09/2024 at 07:14:35.
BEGIN OPTIONS
  TIME_UNITS  days
END OPTIONS

BEGIN DIMENSIONS
  NPER  4
END DIMENSIONS

BEGIN PERIODDATA
    2015.00000000  1       1.20000000
       1.00000000  1       1.20000000
       1.00000000  1       1.20000000
       1.00000000  1       1.20000000
END PERIODDATA

