# File generated by Flopy version 3.8.0 on 12/05/2024 at 20:53:57.
BEGIN OPTIONS
  SAVE_FLOWS
END OPTIONS

BEGIN DIMENSIONS
  MAXBOUND  86
END DIMENSIONS

BEGIN PERIOD  1
  3328 4.95700000E+03 1.87500000E+04
  3563 4.95700000E+03 1.87500000E+04
  3798 4.95700000E+03 1.87500000E+04
  4033 4.95700000E+03 1.87500000E+04
  4267 4.95700000E+03 1.87500000E+04
  4268 4.95700000E+03 1.87500000E+04
  4502 4.95700000E+03 1.87500000E+04
  4737 4.95700000E+03 1.87500000E+04
  4971 4.95700000E+03 1.87500000E+04
  5206 4.95700000E+03 1.87500000E+04
  5441 4.95700000E+03 1.87500000E+04
  5676 4.95700000E+03 1.87500000E+04
  5910 4.95700000E+03 1.87500000E+04
  5911 4.95700000E+03 1.87500000E+04
  6145 4.95700000E+03 1.87500000E+04
  6380 4.95700000E+03 1.87500000E+04
  6614 4.95700000E+03 1.87500000E+04
  6615 4.95700000E+03 1.87500000E+04
  6849 4.95700000E+03 1.87500000E+04
  7084 4.95700000E+03 1.87500000E+04
  7319 4.95700000E+03 1.87500000E+04
  7553 4.95700000E+03 1.87500000E+04
  7554 4.95700000E+03 1.87500000E+04
  7788 4.95700000E+03 1.87500000E+04
  8023 4.95700000E+03 1.87500000E+04
  8257 4.95700000E+03 1.87500000E+04
  8258 4.95700000E+03 1.87500000E+04
  8492 4.95700000E+03 1.87500000E+04
  8727 4.95700000E+03 1.87500000E+04
  8961 4.95700000E+03 1.87500000E+04
  8962 4.95700000E+03 1.87500000E+04
  9196 4.95700000E+03 1.87500000E+04
  9431 4.95700000E+03 1.87500000E+04
  9666 4.95700000E+03 1.87500000E+04
  9900 4.95700000E+03 1.87500000E+04
  9901 4.95700000E+03 1.87500000E+04
  10135 4.95700000E+03 1.87500000E+04
  10370 4.95700000E+03 1.87500000E+04
  10604 4.95700000E+03 1.87500000E+04
  10605 4.95700000E+03 1.87500000E+04
  10839 4.95700000E+03 1.87500000E+04
  11074 4.95700000E+03 1.87500000E+04
  11543 4.95700000E+03 1.87500000E+04
  11778 4.95700000E+03 1.87500000E+04
  12013 4.95700000E+03 1.87500000E+04
  12165 4.95700000E+03 1.87500000E+04
  12166 4.95700000E+03 1.87500000E+04
  12318 4.95700000E+03 1.87500000E+04
  12471 4.95700000E+03 1.87500000E+04
  12624 4.95700000E+03 1.87500000E+04
  12776 4.95700000E+03 1.87500000E+04
  12777 4.95700000E+03 1.87500000E+04
  12929 4.95700000E+03 1.87500000E+04
  13082 4.95700000E+03 1.87500000E+04
  13235 4.95700000E+03 1.87500000E+04
  13388 4.95700000E+03 1.87500000E+04
  13540 4.95700000E+03 1.87500000E+04
  13693 4.95700000E+03 1.87500000E+04
  11309 4.95700000E+03 1.87500000E+04
  13846 4.95700000E+03 1.87500000E+04
  518682 4.92700000E+03 1.25000000E+03
  519503 4.92700000E+03 1.25000000E+03
  520324 4.92700000E+03 1.25000000E+03
  520325 4.92700000E+03 1.25000000E+03
  521145 4.92700000E+03 1.25000000E+03
  521146 4.92700000E+03 1.25000000E+03
  521966 4.92700000E+03 1.25000000E+03
  521967 4.92700000E+03 1.25000000E+03
  522788 4.92700000E+03 1.25000000E+03
  523609 4.92700000E+03 1.25000000E+03
  524430 4.92700000E+03 1.25000000E+03
  524431 4.92700000E+03 1.25000000E+03
  525251 4.92700000E+03 1.25000000E+03
  525252 4.92700000E+03 1.25000000E+03
  526072 4.92700000E+03 1.25000000E+03
  526073 4.92700000E+03 1.25000000E+03
  526894 4.92700000E+03 1.25000000E+03
  527715 4.92700000E+03 1.25000000E+03
  528536 4.92700000E+03 1.25000000E+03
  529357 4.92700000E+03 1.25000000E+03
  529358 4.92700000E+03 1.25000000E+03
  530178 4.92700000E+03 1.25000000E+03
  530179 4.92700000E+03 1.25000000E+03
  531000 4.92700000E+03 1.25000000E+03
  531821 4.92700000E+03 1.25000000E+03
  532642 4.92700000E+03 1.25000000E+03
END PERIOD  1

BEGIN PERIOD  2
  3328 4.95700000E+03 1.87500000E+04
  3563 4.95700000E+03 1.87500000E+04
  3798 4.95700000E+03 1.87500000E+04
  4033 4.95700000E+03 1.87500000E+04
  4267 4.95700000E+03 1.87500000E+04
  4268 4.95700000E+03 1.87500000E+04
  4502 4.95700000E+03 1.87500000E+04
  4737 4.95700000E+03 1.87500000E+04
  4971 4.95700000E+03 1.87500000E+04
  5206 4.95700000E+03 1.87500000E+04
  5441 4.95700000E+03 1.87500000E+04
  5676 4.95700000E+03 1.87500000E+04
  5910 4.95700000E+03 1.87500000E+04
  5911 4.95700000E+03 1.87500000E+04
  6145 4.95700000E+03 1.87500000E+04
  6380 4.95700000E+03 1.87500000E+04
  6614 4.95700000E+03 1.87500000E+04
  6615 4.95700000E+03 1.87500000E+04
  6849 4.95700000E+03 1.87500000E+04
  7084 4.95700000E+03 1.87500000E+04
  7319 4.95700000E+03 1.87500000E+04
  7553 4.95700000E+03 1.87500000E+04
  7554 4.95700000E+03 1.87500000E+04
  7788 4.95700000E+03 1.87500000E+04
  8023 4.95700000E+03 1.87500000E+04
  8257 4.95700000E+03 1.87500000E+04
  8258 4.95700000E+03 1.87500000E+04
  8492 4.95700000E+03 1.87500000E+04
  8727 4.95700000E+03 1.87500000E+04
  8961 4.95700000E+03 1.87500000E+04
  8962 4.95700000E+03 1.87500000E+04
  9196 4.95700000E+03 1.87500000E+04
  9431 4.95700000E+03 1.87500000E+04
  9666 4.95700000E+03 1.87500000E+04
  9900 4.95700000E+03 1.87500000E+04
  9901 4.95700000E+03 1.87500000E+04
  10135 4.95700000E+03 1.87500000E+04
  10370 4.95700000E+03 1.87500000E+04
  10604 4.95700000E+03 1.87500000E+04
  10605 4.95700000E+03 1.87500000E+04
  10839 4.95700000E+03 1.87500000E+04
  11074 4.95700000E+03 1.87500000E+04
  11543 4.95700000E+03 1.87500000E+04
  11778 4.95700000E+03 1.87500000E+04
  12013 4.95700000E+03 1.87500000E+04
  12165 4.95700000E+03 1.87500000E+04
  12166 4.95700000E+03 1.87500000E+04
  12318 4.95700000E+03 1.87500000E+04
  12471 4.95700000E+03 1.87500000E+04
  12624 4.95700000E+03 1.87500000E+04
  12776 4.95700000E+03 1.87500000E+04
  12777 4.95700000E+03 1.87500000E+04
  12929 4.95700000E+03 1.87500000E+04
  13082 4.95700000E+03 1.87500000E+04
  13235 4.95700000E+03 1.87500000E+04
  13388 4.95700000E+03 1.87500000E+04
  13540 4.95700000E+03 1.87500000E+04
  13693 4.95700000E+03 1.87500000E+04
  11309 4.95700000E+03 1.87500000E+04
  13846 4.95700000E+03 1.87500000E+04
  518682 4.92700000E+03 1.25000000E+03
  519503 4.92700000E+03 1.25000000E+03
  520324 4.92700000E+03 1.25000000E+03
  520325 4.92700000E+03 1.25000000E+03
  521145 4.92700000E+03 1.25000000E+03
  521146 4.92700000E+03 1.25000000E+03
  521966 4.92700000E+03 1.25000000E+03
  521967 4.92700000E+03 1.25000000E+03
  522788 4.92700000E+03 1.25000000E+03
  523609 4.92700000E+03 1.25000000E+03
  524430 4.92700000E+03 1.25000000E+03
  524431 4.92700000E+03 1.25000000E+03
  525251 4.92700000E+03 1.25000000E+03
  525252 4.92700000E+03 1.25000000E+03
  526072 4.92700000E+03 1.25000000E+03
  526073 4.92700000E+03 1.25000000E+03
  526894 4.92700000E+03 1.25000000E+03
  527715 4.92700000E+03 1.25000000E+03
  528536 4.92700000E+03 1.25000000E+03
  529357 4.92700000E+03 1.25000000E+03
  529358 4.92700000E+03 1.25000000E+03
  530178 4.92700000E+03 1.25000000E+03
  530179 4.92700000E+03 1.25000000E+03
  531000 4.92700000E+03 1.25000000E+03
  531821 4.92700000E+03 1.25000000E+03
  532642 4.92700000E+03 1.25000000E+03
END PERIOD  2

BEGIN PERIOD  3
  3328 4.95700000E+03 1.87500000E+04
  3563 4.95700000E+03 1.87500000E+04
  3798 4.95700000E+03 1.87500000E+04
  4033 4.95700000E+03 1.87500000E+04
  4267 4.95700000E+03 1.87500000E+04
  4268 4.95700000E+03 1.87500000E+04
  4502 4.95700000E+03 1.87500000E+04
  4737 4.95700000E+03 1.87500000E+04
  4971 4.95700000E+03 1.87500000E+04
  5206 4.95700000E+03 1.87500000E+04
  5441 4.95700000E+03 1.87500000E+04
  5676 4.95700000E+03 1.87500000E+04
  5910 4.95700000E+03 1.87500000E+04
  5911 4.95700000E+03 1.87500000E+04
  6145 4.95700000E+03 1.87500000E+04
  6380 4.95700000E+03 1.87500000E+04
  6614 4.95700000E+03 1.87500000E+04
  6615 4.95700000E+03 1.87500000E+04
  6849 4.95700000E+03 1.87500000E+04
  7084 4.95700000E+03 1.87500000E+04
  7319 4.95700000E+03 1.87500000E+04
  7553 4.95700000E+03 1.87500000E+04
  7554 4.95700000E+03 1.87500000E+04
  7788 4.95700000E+03 1.87500000E+04
  8023 4.95700000E+03 1.87500000E+04
  8257 4.95700000E+03 1.87500000E+04
  8258 4.95700000E+03 1.87500000E+04
  8492 4.95700000E+03 1.87500000E+04
  8727 4.95700000E+03 1.87500000E+04
  8961 4.95700000E+03 1.87500000E+04
  8962 4.95700000E+03 1.87500000E+04
  9196 4.95700000E+03 1.87500000E+04
  9431 4.95700000E+03 1.87500000E+04
  9666 4.95700000E+03 1.87500000E+04
  9900 4.95700000E+03 1.87500000E+04
  9901 4.95700000E+03 1.87500000E+04
  10135 4.95700000E+03 1.87500000E+04
  10370 4.95700000E+03 1.87500000E+04
  10604 4.95700000E+03 1.87500000E+04
  10605 4.95700000E+03 1.87500000E+04
  10839 4.95700000E+03 1.87500000E+04
  11074 4.95700000E+03 1.87500000E+04
  11543 4.95700000E+03 1.87500000E+04
  11778 4.95700000E+03 1.87500000E+04
  12013 4.95700000E+03 1.87500000E+04
  12165 4.95700000E+03 1.87500000E+04
  12166 4.95700000E+03 1.87500000E+04
  12318 4.95700000E+03 1.87500000E+04
  12471 4.95700000E+03 1.87500000E+04
  12624 4.95700000E+03 1.87500000E+04
  12776 4.95700000E+03 1.87500000E+04
  12777 4.95700000E+03 1.87500000E+04
  12929 4.95700000E+03 1.87500000E+04
  13082 4.95700000E+03 1.87500000E+04
  13235 4.95700000E+03 1.87500000E+04
  13388 4.95700000E+03 1.87500000E+04
  13540 4.95700000E+03 1.87500000E+04
  13693 4.95700000E+03 1.87500000E+04
  11309 4.95700000E+03 1.87500000E+04
  13846 4.95700000E+03 1.87500000E+04
  518682 4.92700000E+03 1.25000000E+03
  519503 4.92700000E+03 1.25000000E+03
  520324 4.92700000E+03 1.25000000E+03
  520325 4.92700000E+03 1.25000000E+03
  521145 4.92700000E+03 1.25000000E+03
  521146 4.92700000E+03 1.25000000E+03
  521966 4.92700000E+03 1.25000000E+03
  521967 4.92700000E+03 1.25000000E+03
  522788 4.92700000E+03 1.25000000E+03
  523609 4.92700000E+03 1.25000000E+03
  524430 4.92700000E+03 1.25000000E+03
  524431 4.92700000E+03 1.25000000E+03
  525251 4.92700000E+03 1.25000000E+03
  525252 4.92700000E+03 1.25000000E+03
  526072 4.92700000E+03 1.25000000E+03
  526073 4.92700000E+03 1.25000000E+03
  526894 4.92700000E+03 1.25000000E+03
  527715 4.92700000E+03 1.25000000E+03
  528536 4.92700000E+03 1.25000000E+03
  529357 4.92700000E+03 1.25000000E+03
  529358 4.92700000E+03 1.25000000E+03
  530178 4.92700000E+03 1.25000000E+03
  530179 4.92700000E+03 1.25000000E+03
  531000 4.92700000E+03 1.25000000E+03
  531821 4.92700000E+03 1.25000000E+03
  532642 4.92700000E+03 1.25000000E+03
END PERIOD  3

BEGIN PERIOD  4
  3328 4.95700000E+03 1.87500000E+04
  3563 4.95700000E+03 1.87500000E+04
  3798 4.95700000E+03 1.87500000E+04
  4033 4.95700000E+03 1.87500000E+04
  4267 4.95700000E+03 1.87500000E+04
  4268 4.95700000E+03 1.87500000E+04
  4502 4.95700000E+03 1.87500000E+04
  4737 4.95700000E+03 1.87500000E+04
  4971 4.95700000E+03 1.87500000E+04
  5206 4.95700000E+03 1.87500000E+04
  5441 4.95700000E+03 1.87500000E+04
  5676 4.95700000E+03 1.87500000E+04
  5910 4.95700000E+03 1.87500000E+04
  5911 4.95700000E+03 1.87500000E+04
  6145 4.95700000E+03 1.87500000E+04
  6380 4.95700000E+03 1.87500000E+04
  6614 4.95700000E+03 1.87500000E+04
  6615 4.95700000E+03 1.87500000E+04
  6849 4.95700000E+03 1.87500000E+04
  7084 4.95700000E+03 1.87500000E+04
  7319 4.95700000E+03 1.87500000E+04
  7553 4.95700000E+03 1.87500000E+04
  7554 4.95700000E+03 1.87500000E+04
  7788 4.95700000E+03 1.87500000E+04
  8023 4.95700000E+03 1.87500000E+04
  8257 4.95700000E+03 1.87500000E+04
  8258 4.95700000E+03 1.87500000E+04
  8492 4.95700000E+03 1.87500000E+04
  8727 4.95700000E+03 1.87500000E+04
  8961 4.95700000E+03 1.87500000E+04
  8962 4.95700000E+03 1.87500000E+04
  9196 4.95700000E+03 1.87500000E+04
  9431 4.95700000E+03 1.87500000E+04
  9666 4.95700000E+03 1.87500000E+04
  9900 4.95700000E+03 1.87500000E+04
  9901 4.95700000E+03 1.87500000E+04
  10135 4.95700000E+03 1.87500000E+04
  10370 4.95700000E+03 1.87500000E+04
  10604 4.95700000E+03 1.87500000E+04
  10605 4.95700000E+03 1.87500000E+04
  10839 4.95700000E+03 1.87500000E+04
  11074 4.95700000E+03 1.87500000E+04
  11543 4.95700000E+03 1.87500000E+04
  11778 4.95700000E+03 1.87500000E+04
  12013 4.95700000E+03 1.87500000E+04
  12165 4.95700000E+03 1.87500000E+04
  12166 4.95700000E+03 1.87500000E+04
  12318 4.95700000E+03 1.87500000E+04
  12471 4.95700000E+03 1.87500000E+04
  12624 4.95700000E+03 1.87500000E+04
  12776 4.95700000E+03 1.87500000E+04
  12777 4.95700000E+03 1.87500000E+04
  12929 4.95700000E+03 1.87500000E+04
  13082 4.95700000E+03 1.87500000E+04
  13235 4.95700000E+03 1.87500000E+04
  13388 4.95700000E+03 1.87500000E+04
  13540 4.95700000E+03 1.87500000E+04
  13693 4.95700000E+03 1.87500000E+04
  11309 4.95700000E+03 1.87500000E+04
  13846 4.95700000E+03 1.87500000E+04
  518682 4.92700000E+03 1.25000000E+03
  519503 4.92700000E+03 1.25000000E+03
  520324 4.92700000E+03 1.25000000E+03
  520325 4.92700000E+03 1.25000000E+03
  521145 4.92700000E+03 1.25000000E+03
  521146 4.92700000E+03 1.25000000E+03
  521966 4.92700000E+03 1.25000000E+03
  521967 4.92700000E+03 1.25000000E+03
  522788 4.92700000E+03 1.25000000E+03
  523609 4.92700000E+03 1.25000000E+03
  524430 4.92700000E+03 1.25000000E+03
  524431 4.92700000E+03 1.25000000E+03
  525251 4.92700000E+03 1.25000000E+03
  525252 4.92700000E+03 1.25000000E+03
  526072 4.92700000E+03 1.25000000E+03
  526073 4.92700000E+03 1.25000000E+03
  526894 4.92700000E+03 1.25000000E+03
  527715 4.92700000E+03 1.25000000E+03
  528536 4.92700000E+03 1.25000000E+03
  529357 4.92700000E+03 1.25000000E+03
  529358 4.92700000E+03 1.25000000E+03
  530178 4.92700000E+03 1.25000000E+03
  530179 4.92700000E+03 1.25000000E+03
  531000 4.92700000E+03 1.25000000E+03
  531821 4.92700000E+03 1.25000000E+03
  532642 4.92700000E+03 1.25000000E+03
END PERIOD  4

