# File generated by Flopy version 3.8.0 on 12/05/2024 at 20:53:57.
BEGIN OPTIONS
  SAVE_FLOWS
END OPTIONS

BEGIN DIMENSIONS
  MAXBOUND  411
END DIMENSIONS

BEGIN PERIOD  1
  4409 4.90459063E+03
  4410 4.90454752E+03
  4458 4.90043880E+03
  4459 4.90042941E+03
  4645 4.90451238E+03
  4646 4.90445598E+03
  4647 4.90440264E+03
  4690 4.90065505E+03
  4691 4.90059382E+03
  4692 4.90052831E+03
  4693 4.90047257E+03
  4694 4.90039591E+03
  4695 4.90032938E+03
  4696 4.90026238E+03
  4697 4.90020725E+03
  4882 4.90436569E+03
  4883 4.90431142E+03
  4924 4.90074403E+03
  4925 4.90070219E+03
  4932 4.90017706E+03
  4933 4.90012831E+03
  4934 4.90006123E+03
  4935 4.90002769E+03
  5118 4.90426436E+03
  5119 4.90422390E+03
  5159 4.90080466E+03
  5354 4.90417026E+03
  5355 4.90412981E+03
  5393 4.90088214E+03
  5590 4.90407617E+03
  5591 4.90403572E+03
  5628 4.90094671E+03
  5826 4.90399363E+03
  5863 4.90101863E+03
  6061 4.90394162E+03
  6062 4.90390117E+03
  6098 4.90107882E+03
  6297 4.90384753E+03
  6298 4.90380708E+03
  6332 4.90117812E+03
  6333 4.90113703E+03
  6533 4.90375344E+03
  6534 4.90371299E+03
  6564 4.90137739E+03
  6565 4.90133710E+03
  6566 4.90126753E+03
  6567 4.90122085E+03
  6769 4.90367001E+03
  6792 4.90184159E+03
  6793 4.90179675E+03
  6794 4.90173092E+03
  6795 4.90167189E+03
  6796 4.90160048E+03
  6797 4.90153557E+03
  6798 4.90147067E+03
  6799 4.90140478E+03
  7004 4.90361889E+03
  7005 4.90357844E+03
  7024 4.90205106E+03
  7025 4.90199421E+03
  7026 4.90192839E+03
  7027 4.90187450E+03
  7240 4.90351715E+03
  7257 4.90219641E+03
  7258 4.90213962E+03
  7259 4.90209667E+03
  7476 4.90343228E+03
  7490 4.90233303E+03
  7491 4.90229845E+03
  7492 4.90223427E+03
  7712 4.90334291E+03
  7724 4.90242817E+03
  7725 4.90237279E+03
  7947 4.90329785E+03
  7948 4.90325649E+03
  7958 4.90252330E+03
  7959 4.90246792E+03
  8183 4.90320479E+03
  8184 4.90315301E+03
  8190 4.90272675E+03
  8191 4.90267119E+03
  8192 4.90260809E+03
  8193 4.90256306E+03
  8419 4.90311740E+03
  8420 4.90307257E+03
  8421 4.90300696E+03
  8422 4.90294105E+03
  8423 4.90287607E+03
  8424 4.90281109E+03
  8425 4.90275924E+03
  1095 4.91562752E+03
  1326 4.91677915E+03
  1327 4.91659634E+03
  1328 4.91632519E+03
  1329 4.91597021E+03
  1330 4.91549923E+03
  1331 4.91530315E+03
  1332 4.91508401E+03
  1555 4.91867267E+03
  1556 4.91846946E+03
  1557 4.91814638E+03
  1558 4.91785918E+03
  1559 4.91754098E+03
  1560 4.91723196E+03
  1561 4.91693915E+03
  1567 4.91485013E+03
  1789 4.91909590E+03
  1790 4.91882469E+03
  1802 4.91462567E+03
  1803 4.91444611E+03
  2024 4.91947344E+03
  2038 4.91412592E+03
  2039 4.91398443E+03
  2258 4.91980655E+03
  2259 4.91965278E+03
  2274 4.91381326E+03
  2493 4.92005094E+03
  2509 4.91350380E+03
  2717 4.92868531E+03
  2718 4.92840155E+03
  2719 4.92810415E+03
  2720 4.92787441E+03
  2728 4.92025077E+03
  2729 4.92040493E+03
  2744 4.91319433E+03
  2951 4.92907176E+03
  2952 4.92889893E+03
  2955 4.92771263E+03
  2956 4.92746322E+03
  2957 4.92716086E+03
  2964 4.92072188E+03
  2979 4.91291677E+03
  2980 4.91276203E+03
  3186 4.92930791E+03
  3192 4.92699800E+03
  3193 4.92675762E+03
  3194 4.92653686E+03
  3199 4.92096424E+03
  3200 4.92116362E+03
  3215 4.91257859E+03
  3420 4.92971364E+03
  3421 4.92953281E+03
  3429 4.92632845E+03
  3430 4.92611273E+03
  3436 4.92159849E+03
  3437 4.92181380E+03
  3450 4.91227548E+03
  3654 4.93016722E+03
  3655 4.92998155E+03
  3665 4.92590432E+03
  3666 4.92568860E+03
  3672 4.92203632E+03
  3673 4.92223725E+03
  3685 4.91197543E+03
  3888 4.93059671E+03
  3889 4.93039245E+03
  3901 4.92548020E+03
  3902 4.92523232E+03
  3908 4.92243542E+03
  3920 4.91167538E+03
  4121 4.93137905E+03
  4122 4.93110472E+03
  4123 4.93081282E+03
  4137 4.92506710E+03
  4138 4.92480760E+03
  4143 4.92276977E+03
  4155 4.91141697E+03
  4373 4.92462399E+03
  4374 4.92443209E+03
  4378 4.92311795E+03
  4390 4.91104765E+03
  4407 4.90481307E+03
  4408 4.90472322E+03
  4610 4.92399507E+03
  4611 4.92374788E+03
  4612 4.92347794E+03
  4613 4.92327073E+03
  4625 4.91075458E+03
  4641 4.90524428E+03
  4642 4.90500574E+03
  4861 4.91038932E+03
  4874 4.90588674E+03
  4875 4.90562910E+03
  4876 4.90543695E+03
  5096 4.91013126E+03
  5097 4.90996061E+03
  5102 4.90803306E+03
  5103 4.90786073E+03
  5104 4.90756738E+03
  5105 4.90726760E+03
  5106 4.90696781E+03
  5107 4.90671563E+03
  5108 4.90634906E+03
  5109 4.90606175E+03
  5332 4.90979144E+03
  5333 4.90945137E+03
  5334 4.90909873E+03
  5335 4.90881886E+03
  5336 4.90853432E+03
  5337 4.90819348E+03
  5568 4.90927818E+03
  5569 4.90925661E+03
  1984 4.93856437E+03
  1985 4.93833273E+03
  1986 4.93796799E+03
  1987 4.93771074E+03
  1988 4.93741852E+03
  1989 4.93710294E+03
  1990 4.93676193E+03
  2219 4.93883252E+03
  2225 4.93658392E+03
  2226 4.93638280E+03
  2454 4.93909881E+03
  2462 4.93597055E+03
  2463 4.93566544E+03
  2689 4.93940411E+03
  2698 4.93549279E+03
  2699 4.93529975E+03
  2700 4.93501502E+03
  2924 4.93961589E+03
  2925 4.93978002E+03
  2935 4.93484237E+03
  2936 4.93460913E+03
  3160 4.94001318E+03
  3172 4.93419194E+03
  3173 4.93391851E+03
  3394 4.94045264E+03
  3395 4.94024659E+03
  3409 4.93354152E+03
  3410 4.93323641E+03
  3628 4.94087766E+03
  3629 4.94066515E+03
  3645 4.93306375E+03
  3646 4.93288258E+03
  3647 4.93258598E+03
  3861 4.94157439E+03
  3862 4.94130251E+03
  3863 4.94105022E+03
  3882 4.93241333E+03
  3883 4.93219196E+03
  3884 4.93193556E+03
  4119 4.93176291E+03
  4120 4.93167399E+03
  2879 4.95164708E+03
  2880 4.95145413E+03
  2881 4.95117952E+03
  2882 4.95094024E+03
  2883 4.95067769E+03
  2884 4.95046078E+03
  2885 4.95022024E+03
  2886 4.94997969E+03
  2887 4.94973914E+03
  2888 4.94946619E+03
  2889 4.94925896E+03
  2890 4.94901994E+03
  2891 4.94878092E+03
  2892 4.94854190E+03
  2893 4.94830288E+03
  2894 4.94806386E+03
  2895 4.94790306E+03
  3113 4.95198476E+03
  3114 4.95181731E+03
  3130 4.94778355E+03
  3131 4.94758583E+03
  3132 4.94734681E+03
  3133 4.94710779E+03
  3134 4.94684357E+03
  3135 4.94662986E+03
  3136 4.94639100E+03
  3137 4.94615214E+03
  3138 4.94591327E+03
  3139 4.94567441E+03
  3140 4.94543555E+03
  3141 4.94523231E+03
  3142 4.94495747E+03
  3143 4.94471835E+03
  3144 4.94447924E+03
  3145 4.94424013E+03
  3146 4.94403727E+03
  3347 4.95232243E+03
  3348 4.95215498E+03
  3382 4.94370868E+03
  3383 4.94349256E+03
  3384 4.94326140E+03
  3581 4.95266011E+03
  3582 4.95249266E+03
  3619 4.94313325E+03
  3620 4.94295913E+03
  3621 4.94273648E+03
  3622 4.94248006E+03
  3623 4.94229512E+03
  3815 4.95299778E+03
  3816 4.95283033E+03
  3858 4.94215125E+03
  3859 4.94197650E+03
  3860 4.94182686E+03
  4050 4.95314267E+03
  3094 4.95695633E+03
  3095 4.95683187E+03
  3330 4.95669946E+03
  3331 4.95651542E+03
  3567 4.95624328E+03
  3568 4.95605192E+03
  3803 4.95591951E+03
  3804 4.95572815E+03
  4039 4.95559574E+03
  4040 4.95546809E+03
  4041 4.95522942E+03
  4042 4.95506053E+03
  4049 4.95335542E+03
  4277 4.95494610E+03
  4278 4.95477171E+03
  4279 4.95454285E+03
  4280 4.95436306E+03
  4283 4.95351842E+03
  4284 4.95336923E+03
  4515 4.95424864E+03
  4516 4.95408515E+03
  4517 4.95383898E+03
  4518 4.95367770E+03
  4844 4.92372475E+03
  4845 4.92380289E+03
  5078 4.92337809E+03
  5079 4.92351015E+03
  5313 4.92318909E+03
  5548 4.92296446E+03
  5783 4.92266982E+03
  5811 4.90719424E+03
  5812 4.90698124E+03
  6018 4.92243940E+03
  6044 4.90788329E+03
  6045 4.90756603E+03
  6046 4.90732181E+03
  6253 4.92215229E+03
  6254 4.92201457E+03
  6279 4.90807911E+03
  6280 4.90822396E+03
  6489 4.92189419E+03
  6490 4.92155408E+03
  6491 4.92129547E+03
  6492 4.92102729E+03
  6493 4.92073918E+03
  6515 4.90847548E+03
  6728 4.92046469E+03
  6750 4.90862770E+03
  6751 4.90877255E+03
  6962 4.92012149E+03
  6963 4.92027318E+03
  6986 4.90903144E+03
  6987 4.90917629E+03
  7197 4.92001514E+03
  7198 4.91988601E+03
  7222 4.90932161E+03
  7433 4.91969758E+03
  7457 4.90962605E+03
  7668 4.91947141E+03
  7669 4.91940716E+03
  7692 4.90980623E+03
  7693 4.91000064E+03
  7903 4.91905054E+03
  7907 4.91776132E+03
  7908 4.91747468E+03
  7928 4.91021093E+03
  8138 4.91891271E+03
  8139 4.91872398E+03
  8140 4.91853884E+03
  8141 4.91811932E+03
  8142 4.91792548E+03
  8143 4.91736513E+03
  8144 4.91720883E+03
  8162 4.91060465E+03
  8163 4.91046434E+03
  8375 4.91841969E+03
  8379 4.91697875E+03
  8382 4.91557464E+03
  8383 4.91542824E+03
  8397 4.91076694E+03
  8614 4.91664046E+03
  8616 4.91597225E+03
  8617 4.91572041E+03
  8618 4.91530105E+03
  8619 4.91514873E+03
  8620 4.91484304E+03
  8631 4.91112075E+03
  8632 4.91097221E+03
  8849 4.91641982E+03
  8850 4.91624044E+03
  8851 4.91609796E+03
  8855 4.91465834E+03
  8856 4.91452001E+03
  8860 4.91284051E+03
  8861 4.91271218E+03
  8862 4.91255257E+03
  8865 4.91153038E+03
  8866 4.91138170E+03
  9091 4.91436699E+03
  9094 4.91320874E+03
  9095 4.91300009E+03
  9097 4.91241588E+03
  9098 4.91218798E+03
  9099 4.91191450E+03
  9100 4.91168468E+03
  9326 4.91412359E+03
  9327 4.91389310E+03
  9328 4.91360502E+03
  9329 4.91340011E+03
  5170 4.90002769E+03
  5405 4.90002769E+03
END PERIOD  1

BEGIN PERIOD  2
  4409 4.90454051E+03
  4410 4.90449741E+03
  4458 4.90038879E+03
  4459 4.90037940E+03
  4645 4.90446227E+03
  4646 4.90440587E+03
  4647 4.90435253E+03
  4690 4.90060503E+03
  4691 4.90054381E+03
  4692 4.90047829E+03
  4693 4.90042256E+03
  4694 4.90034590E+03
  4695 4.90027937E+03
  4696 4.90021237E+03
  4697 4.90015725E+03
  4882 4.90431558E+03
  4883 4.90426131E+03
  4924 4.90069401E+03
  4925 4.90065218E+03
  4932 4.90012706E+03
  4933 4.90007831E+03
  4934 4.90001123E+03
  4935 4.89997769E+03
  5118 4.90421425E+03
  5119 4.90417380E+03
  5159 4.90075464E+03
  5354 4.90412016E+03
  5355 4.90407971E+03
  5393 4.90083212E+03
  5590 4.90402607E+03
  5591 4.90398561E+03
  5628 4.90089668E+03
  5826 4.90394353E+03
  5863 4.90096860E+03
  6061 4.90389152E+03
  6062 4.90385107E+03
  6098 4.90102879E+03
  6297 4.90379743E+03
  6298 4.90375698E+03
  6332 4.90112809E+03
  6333 4.90108700E+03
  6533 4.90370334E+03
  6534 4.90366289E+03
  6564 4.90132735E+03
  6565 4.90128707E+03
  6566 4.90121750E+03
  6567 4.90117082E+03
  6769 4.90361992E+03
  6792 4.90179155E+03
  6793 4.90174670E+03
  6794 4.90168088E+03
  6795 4.90162185E+03
  6796 4.90155043E+03
  6797 4.90148553E+03
  6798 4.90142063E+03
  6799 4.90135475E+03
  7004 4.90356880E+03
  7005 4.90352835E+03
  7024 4.90200100E+03
  7025 4.90194416E+03
  7026 4.90187834E+03
  7027 4.90182446E+03
  7240 4.90346706E+03
  7257 4.90214635E+03
  7258 4.90208956E+03
  7259 4.90204661E+03
  7476 4.90338219E+03
  7490 4.90228297E+03
  7491 4.90224839E+03
  7492 4.90218422E+03
  7712 4.90329283E+03
  7724 4.90237810E+03
  7725 4.90232273E+03
  7947 4.90324777E+03
  7948 4.90320641E+03
  7958 4.90247324E+03
  7959 4.90241786E+03
  8183 4.90315471E+03
  8184 4.90310293E+03
  8190 4.90267668E+03
  8191 4.90262112E+03
  8192 4.90255802E+03
  8193 4.90251300E+03
  8419 4.90306732E+03
  8420 4.90302250E+03
  8421 4.90295688E+03
  8422 4.90289098E+03
  8423 4.90282600E+03
  8424 4.90276101E+03
  8425 4.90270917E+03
  1095 4.91557745E+03
  1326 4.91672909E+03
  1327 4.91654628E+03
  1328 4.91627513E+03
  1329 4.91592014E+03
  1330 4.91544916E+03
  1331 4.91525308E+03
  1332 4.91503393E+03
  1555 4.91862261E+03
  1556 4.91841940E+03
  1557 4.91809632E+03
  1558 4.91780912E+03
  1559 4.91749092E+03
  1560 4.91718190E+03
  1561 4.91688909E+03
  1567 4.91480006E+03
  1789 4.91904585E+03
  1790 4.91877464E+03
  1802 4.91457559E+03
  1803 4.91439604E+03
  2024 4.91942339E+03
  2038 4.91407585E+03
  2039 4.91393436E+03
  2258 4.91975650E+03
  2259 4.91960273E+03
  2274 4.91376319E+03
  2493 4.92000089E+03
  2509 4.91345372E+03
  2717 4.92863530E+03
  2718 4.92835154E+03
  2719 4.92805413E+03
  2720 4.92782439E+03
  2728 4.92020072E+03
  2729 4.92035488E+03
  2744 4.91314425E+03
  2951 4.92902175E+03
  2952 4.92884892E+03
  2955 4.92766261E+03
  2956 4.92741320E+03
  2957 4.92711085E+03
  2964 4.92067183E+03
  2979 4.91286669E+03
  2980 4.91271195E+03
  3186 4.92925790E+03
  3192 4.92694798E+03
  3193 4.92670760E+03
  3194 4.92648684E+03
  3199 4.92091420E+03
  3200 4.92111357E+03
  3215 4.91252851E+03
  3420 4.92966363E+03
  3421 4.92948280E+03
  3429 4.92627843E+03
  3430 4.92606271E+03
  3436 4.92154845E+03
  3437 4.92176376E+03
  3450 4.91222540E+03
  3654 4.93011721E+03
  3655 4.92993154E+03
  3665 4.92585430E+03
  3666 4.92563858E+03
  3672 4.92198627E+03
  3673 4.92218721E+03
  3685 4.91192534E+03
  3888 4.93054671E+03
  3889 4.93034244E+03
  3901 4.92543017E+03
  3902 4.92518229E+03
  3908 4.92238538E+03
  3920 4.91162529E+03
  4121 4.93132905E+03
  4122 4.93105472E+03
  4123 4.93076282E+03
  4137 4.92501707E+03
  4138 4.92475757E+03
  4143 4.92271973E+03
  4155 4.91136688E+03
  4373 4.92457396E+03
  4374 4.92438206E+03
  4378 4.92306792E+03
  4390 4.91099756E+03
  4407 4.90476295E+03
  4408 4.90467310E+03
  4610 4.92394504E+03
  4611 4.92369784E+03
  4612 4.92342791E+03
  4613 4.92322069E+03
  4625 4.91070449E+03
  4641 4.90519417E+03
  4642 4.90495562E+03
  4861 4.91033923E+03
  4874 4.90583663E+03
  4875 4.90557899E+03
  4876 4.90538684E+03
  5096 4.91008117E+03
  5097 4.90991052E+03
  5102 4.90798296E+03
  5103 4.90781063E+03
  5104 4.90751727E+03
  5105 4.90721749E+03
  5106 4.90691771E+03
  5107 4.90666552E+03
  5108 4.90629895E+03
  5109 4.90601164E+03
  5332 4.90974134E+03
  5333 4.90940127E+03
  5334 4.90904863E+03
  5335 4.90876876E+03
  5336 4.90848422E+03
  5337 4.90814338E+03
  5568 4.90922808E+03
  5569 4.90920651E+03
  1984 4.93851436E+03
  1985 4.93828273E+03
  1986 4.93791799E+03
  1987 4.93766074E+03
  1988 4.93736852E+03
  1989 4.93705294E+03
  1990 4.93671193E+03
  2219 4.93878252E+03
  2225 4.93653392E+03
  2226 4.93633280E+03
  2454 4.93904881E+03
  2462 4.93592055E+03
  2463 4.93561544E+03
  2689 4.93935411E+03
  2698 4.93544279E+03
  2699 4.93524975E+03
  2700 4.93496502E+03
  2924 4.93956589E+03
  2925 4.93973002E+03
  2935 4.93479237E+03
  2936 4.93455913E+03
  3160 4.93996318E+03
  3172 4.93414194E+03
  3173 4.93386851E+03
  3394 4.94040264E+03
  3395 4.94019659E+03
  3409 4.93349152E+03
  3410 4.93318641E+03
  3628 4.94082766E+03
  3629 4.94061515E+03
  3645 4.93301375E+03
  3646 4.93283258E+03
  3647 4.93253598E+03
  3861 4.94152440E+03
  3862 4.94125251E+03
  3863 4.94100022E+03
  3882 4.93236333E+03
  3883 4.93214196E+03
  3884 4.93188556E+03
  4119 4.93171291E+03
  4120 4.93162399E+03
  2879 4.95159708E+03
  2880 4.95140413E+03
  2881 4.95112952E+03
  2882 4.95089024E+03
  2883 4.95062769E+03
  2884 4.95041078E+03
  2885 4.95017024E+03
  2886 4.94992969E+03
  2887 4.94968914E+03
  2888 4.94941619E+03
  2889 4.94920896E+03
  2890 4.94896994E+03
  2891 4.94873092E+03
  2892 4.94849190E+03
  2893 4.94825288E+03
  2894 4.94801386E+03
  2895 4.94785306E+03
  3113 4.95193476E+03
  3114 4.95176731E+03
  3130 4.94773355E+03
  3131 4.94753582E+03
  3132 4.94729681E+03
  3133 4.94705779E+03
  3134 4.94679357E+03
  3135 4.94657986E+03
  3136 4.94634100E+03
  3137 4.94610214E+03
  3138 4.94586327E+03
  3139 4.94562441E+03
  3140 4.94538555E+03
  3141 4.94518231E+03
  3142 4.94490747E+03
  3143 4.94466835E+03
  3144 4.94442924E+03
  3145 4.94419013E+03
  3146 4.94398727E+03
  3347 4.95227243E+03
  3348 4.95210498E+03
  3382 4.94365868E+03
  3383 4.94344256E+03
  3384 4.94321140E+03
  3581 4.95261011E+03
  3582 4.95244266E+03
  3619 4.94308325E+03
  3620 4.94290913E+03
  3621 4.94268648E+03
  3622 4.94243006E+03
  3623 4.94224512E+03
  3815 4.95294778E+03
  3816 4.95278033E+03
  3858 4.94210125E+03
  3859 4.94192650E+03
  3860 4.94177686E+03
  4050 4.95309267E+03
  3094 4.95690632E+03
  3095 4.95678187E+03
  3330 4.95664946E+03
  3331 4.95646542E+03
  3567 4.95619328E+03
  3568 4.95600192E+03
  3803 4.95586951E+03
  3804 4.95567815E+03
  4039 4.95554574E+03
  4040 4.95541809E+03
  4041 4.95517942E+03
  4042 4.95501053E+03
  4049 4.95330542E+03
  4277 4.95489610E+03
  4278 4.95472171E+03
  4279 4.95449286E+03
  4280 4.95431307E+03
  4283 4.95346842E+03
  4284 4.95331923E+03
  4515 4.95419864E+03
  4516 4.95403515E+03
  4517 4.95378898E+03
  4518 4.95362770E+03
  4844 4.92368459E+03
  4845 4.92376278E+03
  5078 4.92333775E+03
  5079 4.92346988E+03
  5313 4.92314864E+03
  5548 4.92292388E+03
  5783 4.92262907E+03
  5811 4.90714473E+03
  6018 4.92239852E+03
  6044 4.90783417E+03
  6045 4.90751672E+03
  6046 4.90727236E+03
  6253 4.92211125E+03
  6254 4.92197345E+03
  6279 4.90803010E+03
  6280 4.90817503E+03
  6489 4.92185300E+03
  6490 4.92151270E+03
  6491 4.92125394E+03
  6492 4.92098561E+03
  6493 4.92069733E+03
  6515 4.90842669E+03
  6728 4.92042269E+03
  6750 4.90857900E+03
  6751 4.90872393E+03
  6962 4.92007930E+03
  6963 4.92023107E+03
  6986 4.90898296E+03
  6987 4.90912790E+03
  7197 4.91997289E+03
  7198 4.91984369E+03
  7222 4.90927330E+03
  7433 4.91965515E+03
  7457 4.90957791E+03
  7668 4.91942885E+03
  7669 4.91936456E+03
  7692 4.90975820E+03
  7693 4.90995272E+03
  7903 4.91900774E+03
  7907 4.91771779E+03
  7908 4.91743099E+03
  7928 4.91016313E+03
  8138 4.91886983E+03
  8139 4.91868099E+03
  8140 4.91849575E+03
  8141 4.91807599E+03
  8142 4.91788204E+03
  8143 4.91732138E+03
  8144 4.91716499E+03
  8162 4.91055707E+03
  8163 4.91041668E+03
  8375 4.91837653E+03
  8379 4.91693478E+03
  8382 4.91552987E+03
  8383 4.91538339E+03
  8397 4.91071944E+03
  8614 4.91659629E+03
  8616 4.91592771E+03
  8617 4.91567573E+03
  8618 4.91525613E+03
  8619 4.91510372E+03
  8620 4.91479786E+03
  8631 4.91107346E+03
  8632 4.91092484E+03
  8849 4.91637553E+03
  8850 4.91619605E+03
  8851 4.91605349E+03
  8855 4.91461305E+03
  8856 4.91447464E+03
  8860 4.91279420E+03
  8861 4.91266579E+03
  8862 4.91250609E+03
  8865 4.91148332E+03
  8866 4.91133456E+03
  9091 4.91432154E+03
  9094 4.91316263E+03
  9095 4.91295387E+03
  9097 4.91236932E+03
  9098 4.91214129E+03
  9099 4.91186766E+03
  9100 4.91163771E+03
  9326 4.91407799E+03
  9327 4.91384738E+03
  9328 4.91355914E+03
  9329 4.91335411E+03
  5170 4.89997769E+03
  5405 4.89997769E+03
END PERIOD  2

BEGIN PERIOD  3
  4409 4.90441051E+03
  4410 4.90436741E+03
  4458 4.90025879E+03
  4459 4.90024940E+03
  4645 4.90433227E+03
  4646 4.90427587E+03
  4647 4.90422253E+03
  4690 4.90047503E+03
  4691 4.90041381E+03
  4692 4.90034829E+03
  4693 4.90029256E+03
  4694 4.90021590E+03
  4695 4.90014937E+03
  4696 4.90008237E+03
  4697 4.90002725E+03
  4882 4.90418558E+03
  4883 4.90413131E+03
  4924 4.90056401E+03
  4925 4.90052218E+03
  4932 4.89999706E+03
  4933 4.89994831E+03
  4934 4.89988123E+03
  4935 4.89984769E+03
  5118 4.90408425E+03
  5119 4.90404380E+03
  5159 4.90062464E+03
  5354 4.90399016E+03
  5355 4.90394971E+03
  5393 4.90070212E+03
  5590 4.90389607E+03
  5591 4.90385562E+03
  5628 4.90076668E+03
  5826 4.90381353E+03
  5863 4.90083860E+03
  6061 4.90376152E+03
  6062 4.90372107E+03
  6098 4.90089879E+03
  6297 4.90366743E+03
  6298 4.90362698E+03
  6332 4.90099809E+03
  6333 4.90095700E+03
  6533 4.90357334E+03
  6534 4.90353289E+03
  6564 4.90119735E+03
  6565 4.90115707E+03
  6566 4.90108750E+03
  6567 4.90104082E+03
  6769 4.90348992E+03
  6792 4.90166155E+03
  6793 4.90161670E+03
  6794 4.90155088E+03
  6795 4.90149185E+03
  6796 4.90142043E+03
  6797 4.90135553E+03
  6798 4.90129063E+03
  6799 4.90122475E+03
  7004 4.90343880E+03
  7005 4.90339835E+03
  7024 4.90187100E+03
  7025 4.90181416E+03
  7026 4.90174834E+03
  7027 4.90169446E+03
  7240 4.90333706E+03
  7257 4.90201635E+03
  7258 4.90195956E+03
  7259 4.90191661E+03
  7476 4.90325219E+03
  7490 4.90215297E+03
  7491 4.90211839E+03
  7492 4.90205422E+03
  7712 4.90316283E+03
  7724 4.90224810E+03
  7725 4.90219273E+03
  7947 4.90311777E+03
  7948 4.90307641E+03
  7958 4.90234324E+03
  7959 4.90228786E+03
  8183 4.90302471E+03
  8184 4.90297293E+03
  8190 4.90254668E+03
  8191 4.90249112E+03
  8192 4.90242802E+03
  8193 4.90238300E+03
  8419 4.90293732E+03
  8420 4.90289250E+03
  8421 4.90282688E+03
  8422 4.90276098E+03
  8423 4.90269600E+03
  8424 4.90263101E+03
  8425 4.90257917E+03
  1095 4.91544745E+03
  1326 4.91659909E+03
  1327 4.91641628E+03
  1328 4.91614513E+03
  1329 4.91579014E+03
  1330 4.91531916E+03
  1331 4.91512308E+03
  1332 4.91490393E+03
  1555 4.91849261E+03
  1556 4.91828940E+03
  1557 4.91796632E+03
  1558 4.91767912E+03
  1559 4.91736092E+03
  1560 4.91705190E+03
  1561 4.91675909E+03
  1567 4.91467006E+03
  1789 4.91891585E+03
  1790 4.91864464E+03
  1802 4.91444559E+03
  1803 4.91426604E+03
  2024 4.91929339E+03
  2038 4.91394585E+03
  2039 4.91380436E+03
  2258 4.91962650E+03
  2259 4.91947273E+03
  2274 4.91363319E+03
  2493 4.91987089E+03
  2509 4.91332372E+03
  2717 4.92850530E+03
  2718 4.92822154E+03
  2719 4.92792413E+03
  2720 4.92769439E+03
  2728 4.92007072E+03
  2729 4.92022488E+03
  2744 4.91301425E+03
  2951 4.92889175E+03
  2952 4.92871892E+03
  2955 4.92753261E+03
  2956 4.92728320E+03
  2957 4.92698085E+03
  2964 4.92054183E+03
  2979 4.91273669E+03
  2980 4.91258195E+03
  3186 4.92912790E+03
  3192 4.92681798E+03
  3193 4.92657760E+03
  3194 4.92635684E+03
  3199 4.92078420E+03
  3200 4.92098357E+03
  3215 4.91239851E+03
  3420 4.92953363E+03
  3421 4.92935280E+03
  3429 4.92614843E+03
  3430 4.92593271E+03
  3436 4.92141845E+03
  3437 4.92163376E+03
  3450 4.91209540E+03
  3654 4.92998721E+03
  3655 4.92980154E+03
  3665 4.92572430E+03
  3666 4.92550858E+03
  3672 4.92185627E+03
  3673 4.92205721E+03
  3685 4.91179535E+03
  3888 4.93041671E+03
  3889 4.93021244E+03
  3901 4.92530017E+03
  3902 4.92505229E+03
  3908 4.92225538E+03
  3920 4.91149529E+03
  4121 4.93119905E+03
  4122 4.93092472E+03
  4123 4.93063282E+03
  4137 4.92488707E+03
  4138 4.92462757E+03
  4143 4.92258973E+03
  4155 4.91123688E+03
  4373 4.92444396E+03
  4374 4.92425206E+03
  4378 4.92293792E+03
  4390 4.91086756E+03
  4407 4.90463295E+03
  4408 4.90454310E+03
  4610 4.92381504E+03
  4611 4.92356784E+03
  4612 4.92329791E+03
  4613 4.92309069E+03
  4625 4.91057449E+03
  4641 4.90506417E+03
  4642 4.90482562E+03
  4861 4.91020923E+03
  4874 4.90570663E+03
  4875 4.90544899E+03
  4876 4.90525684E+03
  5096 4.90995117E+03
  5097 4.90978052E+03
  5102 4.90785296E+03
  5103 4.90768063E+03
  5104 4.90738727E+03
  5105 4.90708749E+03
  5106 4.90678771E+03
  5107 4.90653552E+03
  5108 4.90616895E+03
  5109 4.90588164E+03
  5332 4.90961134E+03
  5333 4.90927127E+03
  5334 4.90891863E+03
  5335 4.90863876E+03
  5336 4.90835422E+03
  5337 4.90801338E+03
  5568 4.90909808E+03
  5569 4.90907651E+03
  1984 4.93838436E+03
  1985 4.93815273E+03
  1986 4.93778799E+03
  1987 4.93753074E+03
  1988 4.93723852E+03
  1989 4.93692294E+03
  1990 4.93658193E+03
  2219 4.93865253E+03
  2225 4.93640392E+03
  2226 4.93620280E+03
  2454 4.93891881E+03
  2462 4.93579055E+03
  2463 4.93548544E+03
  2689 4.93922411E+03
  2698 4.93531279E+03
  2699 4.93511975E+03
  2700 4.93483502E+03
  2924 4.93943589E+03
  2925 4.93960001E+03
  2935 4.93466237E+03
  2936 4.93442913E+03
  3160 4.93983318E+03
  3172 4.93401194E+03
  3173 4.93373851E+03
  3394 4.94027264E+03
  3395 4.94006659E+03
  3409 4.93336152E+03
  3410 4.93305641E+03
  3628 4.94069765E+03
  3629 4.94048515E+03
  3645 4.93288375E+03
  3646 4.93270258E+03
  3647 4.93240598E+03
  3861 4.94139440E+03
  3862 4.94112251E+03
  3863 4.94087022E+03
  3882 4.93223333E+03
  3883 4.93201196E+03
  3884 4.93175556E+03
  4119 4.93158291E+03
  4120 4.93149399E+03
  2879 4.95146708E+03
  2880 4.95127413E+03
  2881 4.95099952E+03
  2882 4.95076024E+03
  2883 4.95049769E+03
  2884 4.95028078E+03
  2885 4.95004024E+03
  2886 4.94979969E+03
  2887 4.94955914E+03
  2888 4.94928619E+03
  2889 4.94907896E+03
  2890 4.94883994E+03
  2891 4.94860092E+03
  2892 4.94836190E+03
  2893 4.94812288E+03
  2894 4.94788386E+03
  2895 4.94772306E+03
  3113 4.95180476E+03
  3114 4.95163731E+03
  3130 4.94760355E+03
  3131 4.94740582E+03
  3132 4.94716681E+03
  3133 4.94692779E+03
  3134 4.94666357E+03
  3135 4.94644986E+03
  3136 4.94621100E+03
  3137 4.94597214E+03
  3138 4.94573327E+03
  3139 4.94549441E+03
  3140 4.94525555E+03
  3141 4.94505231E+03
  3142 4.94477747E+03
  3143 4.94453835E+03
  3144 4.94429924E+03
  3145 4.94406013E+03
  3146 4.94385727E+03
  3347 4.95214243E+03
  3348 4.95197498E+03
  3382 4.94352868E+03
  3383 4.94331256E+03
  3384 4.94308140E+03
  3581 4.95248011E+03
  3582 4.95231266E+03
  3619 4.94295325E+03
  3620 4.94277913E+03
  3621 4.94255648E+03
  3622 4.94230006E+03
  3623 4.94211512E+03
  3815 4.95281778E+03
  3816 4.95265033E+03
  3858 4.94197125E+03
  3859 4.94179650E+03
  3860 4.94164686E+03
  4050 4.95296267E+03
  3094 4.95677632E+03
  3095 4.95665187E+03
  3330 4.95651946E+03
  3331 4.95633542E+03
  3567 4.95606328E+03
  3568 4.95587192E+03
  3803 4.95573951E+03
  3804 4.95554815E+03
  4039 4.95541574E+03
  4040 4.95528809E+03
  4041 4.95504942E+03
  4042 4.95488053E+03
  4049 4.95317543E+03
  4277 4.95476610E+03
  4278 4.95459171E+03
  4279 4.95436286E+03
  4280 4.95418307E+03
  4283 4.95333842E+03
  4284 4.95318923E+03
  4515 4.95406864E+03
  4516 4.95390515E+03
  4517 4.95365898E+03
  4518 4.95349770E+03
  4844 4.92355475E+03
  4845 4.92363289E+03
  5078 4.92320809E+03
  5079 4.92334015E+03
  5313 4.92301909E+03
  5548 4.92279446E+03
  5783 4.92249982E+03
  6018 4.92226940E+03
  6044 4.90771329E+03
  6045 4.90739603E+03
  6046 4.90715181E+03
  6253 4.92198229E+03
  6254 4.92184457E+03
  6279 4.90790911E+03
  6280 4.90805396E+03
  6489 4.92172419E+03
  6490 4.92138408E+03
  6491 4.92112547E+03
  6492 4.92085729E+03
  6493 4.92056918E+03
  6515 4.90830548E+03
  6728 4.92029469E+03
  6750 4.90845770E+03
  6751 4.90860255E+03
  6962 4.91995149E+03
  6963 4.92010318E+03
  6986 4.90886144E+03
  6987 4.90900629E+03
  7197 4.91984514E+03
  7198 4.91971601E+03
  7222 4.90915161E+03
  7433 4.91952758E+03
  7457 4.90945605E+03
  7668 4.91930141E+03
  7669 4.91923716E+03
  7692 4.90963623E+03
  7693 4.90983064E+03
  7903 4.91888054E+03
  7907 4.91759132E+03
  7908 4.91730468E+03
  7928 4.91004093E+03
  8138 4.91874271E+03
  8139 4.91855398E+03
  8140 4.91836884E+03
  8141 4.91794932E+03
  8142 4.91775548E+03
  8143 4.91719513E+03
  8144 4.91703883E+03
  8162 4.91043465E+03
  8163 4.91029434E+03
  8375 4.91824969E+03
  8379 4.91680875E+03
  8382 4.91540464E+03
  8383 4.91525824E+03
  8397 4.91059694E+03
  8614 4.91647046E+03
  8616 4.91580225E+03
  8617 4.91555041E+03
  8618 4.91513105E+03
  8619 4.91497873E+03
  8620 4.91467304E+03
  8631 4.91095075E+03
  8632 4.91080221E+03
  8849 4.91624982E+03
  8850 4.91607044E+03
  8851 4.91592796E+03
  8855 4.91448834E+03
  8856 4.91435001E+03
  8860 4.91267051E+03
  8861 4.91254218E+03
  8862 4.91238257E+03
  8865 4.91136038E+03
  8866 4.91121170E+03
  9091 4.91419699E+03
  9094 4.91303874E+03
  9095 4.91283009E+03
  9097 4.91224588E+03
  9098 4.91201798E+03
  9099 4.91174450E+03
  9100 4.91151468E+03
  9326 4.91395359E+03
  9327 4.91372310E+03
  9328 4.91343502E+03
  9329 4.91323011E+03
  5170 4.89984769E+03
  5405 4.89984769E+03
END PERIOD  3

BEGIN PERIOD  4
  4409 4.90543051E+03
  4410 4.90538741E+03
  4458 4.90127879E+03
  4459 4.90126940E+03
  4645 4.90535227E+03
  4646 4.90529587E+03
  4647 4.90524253E+03
  4690 4.90149503E+03
  4691 4.90143381E+03
  4692 4.90136829E+03
  4693 4.90131256E+03
  4694 4.90123590E+03
  4695 4.90116937E+03
  4696 4.90110237E+03
  4697 4.90104725E+03
  4882 4.90520558E+03
  4883 4.90515132E+03
  4924 4.90158401E+03
  4925 4.90154218E+03
  4932 4.90101706E+03
  4933 4.90096831E+03
  4934 4.90090123E+03
  4935 4.90086769E+03
  5118 4.90510425E+03
  5119 4.90506380E+03
  5159 4.90164464E+03
  5354 4.90501016E+03
  5355 4.90496971E+03
  5393 4.90172212E+03
  5590 4.90491607E+03
  5591 4.90487561E+03
  5628 4.90178668E+03
  5826 4.90483353E+03
  5863 4.90185860E+03
  6061 4.90478152E+03
  6062 4.90474107E+03
  6098 4.90191879E+03
  6297 4.90468743E+03
  6298 4.90464698E+03
  6332 4.90201809E+03
  6333 4.90197700E+03
  6533 4.90459334E+03
  6534 4.90455289E+03
  6564 4.90221735E+03
  6565 4.90217706E+03
  6566 4.90210750E+03
  6567 4.90206082E+03
  6769 4.90450992E+03
  6792 4.90268155E+03
  6793 4.90263670E+03
  6794 4.90257088E+03
  6795 4.90251185E+03
  6796 4.90244043E+03
  6797 4.90237553E+03
  6798 4.90231063E+03
  6799 4.90224475E+03
  7004 4.90445880E+03
  7005 4.90441835E+03
  7024 4.90289100E+03
  7025 4.90283416E+03
  7026 4.90276834E+03
  7027 4.90271446E+03
  7240 4.90435706E+03
  7257 4.90303635E+03
  7258 4.90297956E+03
  7259 4.90293661E+03
  7476 4.90427219E+03
  7490 4.90317297E+03
  7491 4.90313839E+03
  7492 4.90307422E+03
  7712 4.90418282E+03