# File generated by Flopy version 3.8.0 on 12/05/2024 at 20:49:00.
BEGIN OPTIONS
  PRINT_OPTION  none
  COMPLEXITY  moderate
END OPTIONS

