# File generated by Flopy version 3.8.0 on 12/05/2024 at 20:53:57.
BEGIN options
END options

BEGIN dimensions
  MAXBOUND  1
END dimensions

BEGIN period  1
  415668 0
END period  1

BEGIN period  2
  415668 -6.35000000E+01
END period  2

BEGIN period  3
  415668 0
END period  3

