# File generated by Flopy version 3.8.0 on 12/05/2024 at 20:53:57.
BEGIN options
END options

BEGIN continuous  FILEOUT  heads_w1006_2.1.csv
  w1006  head  414847
END continuous  FILEOUT  heads_w1006_2.1.csv

