# File generated by Flopy version 3.8.0 on 12/05/2024 at 20:53:57.
BEGIN options
  BUDGET  FILEOUT  mf6_riv_reg_2.1.cbb
  HEAD  FILEOUT  mf6_riv_reg_2.1.hds
END options

BEGIN period  1
  SAVE  HEAD  ALL
  SAVE  BUDGET  ALL
  PRINT  HEAD  ALL
END period  1

