# File generated by Flopy version 3.8.0 on 12/05/2024 at 20:49:00.
BEGIN options
END options

BEGIN TIMING
  TDIS6  mf6.tdis
END TIMING

BEGIN MODELS
  gwf6  mf6_riv_reg.nam  mf6model
END MODELS

BEGIN EXCHANGES
END EXCHANGES

BEGIN SOLUTIONGROUP  1
  ims6  mf6_riv_reg.ims  mf6model  

END SOLUTIONGROUP  1

